field.fld: written by SWAT+ editor v3.0.8 on 2025-07-29 21:28 for SWAT+ rev.61.0.1
name                       len            wd           ang  
fld0010              500.00000     100.00000      30.00000  
fld0020              500.00000     100.00000      30.00000  
fld0030              500.00000     100.00000      30.00000  
fld0040              500.00000     100.00000      30.00000  
fld0050              500.00000     100.00000      30.00000  
fld0060              500.00000     100.00000      30.00000  
fld0070              500.00000     100.00000      30.00000  
fld0080              500.00000     100.00000      30.00000  
fld0090              500.00000     100.00000      30.00000  
fld0100              500.00000     100.00000      30.00000  
fld0110              500.00000     100.00000      30.00000  
fld0120              500.00000     100.00000      30.00000  
fld0130              500.00000     100.00000      30.00000  
fld0140              500.00000     100.00000      30.00000  
fld0150              500.00000     100.00000      30.00000  
fld0160              500.00000     100.00000      30.00000  
fld0170              500.00000     100.00000      30.00000  
fld0180              500.00000     100.00000      30.00000  
fld0190              500.00000     100.00000      30.00000  
fld0200              500.00000     100.00000      30.00000  
fld0210              500.00000     100.00000      30.00000  
fld0220              500.00000     100.00000      30.00000  
fld0230              500.00000     100.00000      30.00000  
fld0240              500.00000     100.00000      30.00000  
fld0250              500.00000     100.00000      30.00000  
fld0260              500.00000     100.00000      30.00000  
fld0270              500.00000     100.00000      30.00000  
fld0280              500.00000     100.00000      30.00000  
fld0290              500.00000     100.00000      30.00000  
fld0300              500.00000     100.00000      30.00000  
fld0310              500.00000     100.00000      30.00000  
fld0320              500.00000     100.00000      30.00000  
fld0330              500.00000     100.00000      30.00000  
fld0340              500.00000     100.00000      30.00000  
fld0350              500.00000     100.00000      30.00000  
fld0360              500.00000     100.00000      30.00000  
fld0370              500.00000     100.00000      30.00000  
fld0380              500.00000     100.00000      30.00000  
fld0390              500.00000     100.00000      30.00000  
fld0400              500.00000     100.00000      30.00000  
fld0410              500.00000     100.00000      30.00000  
fld0420              500.00000     100.00000      30.00000  
fld0430              500.00000     100.00000      30.00000  
fld0440              500.00000     100.00000      30.00000  
fld0450              500.00000     100.00000      30.00000  
fld0460              500.00000     100.00000      30.00000  
fld0470              500.00000     100.00000      30.00000  
fld0480              500.00000     100.00000      30.00000  
fld0490              500.00000     100.00000      30.00000  
fld0500              500.00000     100.00000      30.00000  
fld0510              500.00000     100.00000      30.00000  
fld0520              500.00000     100.00000      30.00000  
fld0530              500.00000     100.00000      30.00000  
fld0540              500.00000     100.00000      30.00000  
fld0550              500.00000     100.00000      30.00000  
fld0560              500.00000     100.00000      30.00000  
fld0570              500.00000     100.00000      30.00000  
fld0580              500.00000     100.00000      30.00000  
fld0590              500.00000     100.00000      30.00000  
fld0600              500.00000     100.00000      30.00000  
fld0610              500.00000     100.00000      30.00000  
fld0620              500.00000     100.00000      30.00000  
fld0630              500.00000     100.00000      30.00000  
fld0640              500.00000     100.00000      30.00000  
fld0650              500.00000     100.00000      30.00000  
fld0660              500.00000     100.00000      30.00000  
fld0670              500.00000     100.00000      30.00000  
fld0680              500.00000     100.00000      30.00000  
fld0690              500.00000     100.00000      30.00000  
fld0700              500.00000     100.00000      30.00000  
fld0710              500.00000     100.00000      30.00000  
fld0720              500.00000     100.00000      30.00000  
fld0730              500.00000     100.00000      30.00000  
fld0740              500.00000     100.00000      30.00000  
fld0750              500.00000     100.00000      30.00000  
fld0760              500.00000     100.00000      30.00000  
fld0770              500.00000     100.00000      30.00000  
fld0780              500.00000     100.00000      30.00000  
fld0790              500.00000     100.00000      30.00000  
fld0800              500.00000     100.00000      30.00000  
fld0810              500.00000     100.00000      30.00000  
fld0820              500.00000     100.00000      30.00000  
fld0830              500.00000     100.00000      30.00000  
fld0840              500.00000     100.00000      30.00000  
fld0850              500.00000     100.00000      30.00000  
fld0860              500.00000     100.00000      30.00000  
fld0870              500.00000     100.00000      30.00000  
fld0880              500.00000     100.00000      30.00000  
fld0890              500.00000     100.00000      30.00000  
fld0900              500.00000     100.00000      30.00000  
fld0910              500.00000     100.00000      30.00000  
fld0920              500.00000     100.00000      30.00000  
fld0930              500.00000     100.00000      30.00000  
fld0940              500.00000     100.00000      30.00000  
fld0950              500.00000     100.00000      30.00000  
fld0960              500.00000     100.00000      30.00000  
fld0970              500.00000     100.00000      30.00000  
fld0980              500.00000     100.00000      30.00000  
fld0990              500.00000     100.00000      30.00000  
fld1000              500.00000     100.00000      30.00000  
fld1010              500.00000     100.00000      30.00000  
fld1020              500.00000     100.00000      30.00000  
fld1030              500.00000     100.00000      30.00000  
fld1040              500.00000     100.00000      30.00000  
fld1050              500.00000     100.00000      30.00000  
fld1060              500.00000     100.00000      30.00000  
fld1070              500.00000     100.00000      30.00000  
fld1080              500.00000     100.00000      30.00000  
fld1090              500.00000     100.00000      30.00000  
fld1100              500.00000     100.00000      30.00000  
fld1110              500.00000     100.00000      30.00000  
fld1120              500.00000     100.00000      30.00000  
fld1130              500.00000     100.00000      30.00000  
fld1140              500.00000     100.00000      30.00000  
fld1150              500.00000     100.00000      30.00000  
fld1160              500.00000     100.00000      30.00000  
fld1170              500.00000     100.00000      30.00000  
fld1180              500.00000     100.00000      30.00000  
fld1190              500.00000     100.00000      30.00000  
fld1200              500.00000     100.00000      30.00000  
fld1210              500.00000     100.00000      30.00000  
fld1220              500.00000     100.00000      30.00000  
fld1230              500.00000     100.00000      30.00000  
fld1240              500.00000     100.00000      30.00000  
fld1250              500.00000     100.00000      30.00000  
fld1260              500.00000     100.00000      30.00000  
fld1270              500.00000     100.00000      30.00000  
fld1280              500.00000     100.00000      30.00000  
fld1290              500.00000     100.00000      30.00000  
fld1300              500.00000     100.00000      30.00000  
fld1310              500.00000     100.00000      30.00000  
fld1320              500.00000     100.00000      30.00000  
fld1330              500.00000     100.00000      30.00000  
fld1340              500.00000     100.00000      30.00000  
fld1350              500.00000     100.00000      30.00000  
fld1360              500.00000     100.00000      30.00000  
fld1370              500.00000     100.00000      30.00000  
fld1380              500.00000     100.00000      30.00000  
fld1390              500.00000     100.00000      30.00000  
fld1400              500.00000     100.00000      30.00000  
fld1410              500.00000     100.00000      30.00000  
fld1420              500.00000     100.00000      30.00000  
fld1430              500.00000     100.00000      30.00000  
fld1440              500.00000     100.00000      30.00000  
fld1450              500.00000     100.00000      30.00000  
fld1460              500.00000     100.00000      30.00000  
fld1470              500.00000     100.00000      30.00000  
fld1480              500.00000     100.00000      30.00000  
fld1490              500.00000     100.00000      30.00000  
fld1500              500.00000     100.00000      30.00000  
fld1510              500.00000     100.00000      30.00000  
fld1520              500.00000     100.00000      30.00000  
fld1530              500.00000     100.00000      30.00000  
fld1540              500.00000     100.00000      30.00000  
fld1550              500.00000     100.00000      30.00000  
fld1560              500.00000     100.00000      30.00000  
fld1570              500.00000     100.00000      30.00000  
fld1580              500.00000     100.00000      30.00000  
fld1590              500.00000     100.00000      30.00000  
fld1600              500.00000     100.00000      30.00000  
fld1610              500.00000     100.00000      30.00000  
fld1620              500.00000     100.00000      30.00000  
fld1630              500.00000     100.00000      30.00000  
fld1640              500.00000     100.00000      30.00000  
fld1650              500.00000     100.00000      30.00000  
fld1660              500.00000     100.00000      30.00000  
fld1670              500.00000     100.00000      30.00000  
fld1680              500.00000     100.00000      30.00000  
fld1690              500.00000     100.00000      30.00000  
fld1700              500.00000     100.00000      30.00000  
fld1710              500.00000     100.00000      30.00000  
fld1720              500.00000     100.00000      30.00000  
fld1730              500.00000     100.00000      30.00000  
fld1740              500.00000     100.00000      30.00000  
fld1750              500.00000     100.00000      30.00000  
fld1760              500.00000     100.00000      30.00000  
fld1770              500.00000     100.00000      30.00000  
fld1780              500.00000     100.00000      30.00000  
fld1790              500.00000     100.00000      30.00000  
fld1800              500.00000     100.00000      30.00000  
fld1810              500.00000     100.00000      30.00000  
fld1820              500.00000     100.00000      30.00000  
fld1830              500.00000     100.00000      30.00000  
fld1840              500.00000     100.00000      30.00000  
fld1850              500.00000     100.00000      30.00000  
fld1860              500.00000     100.00000      30.00000  
fld1870              500.00000     100.00000      30.00000  
fld1880              500.00000     100.00000      30.00000  
fld1890              500.00000     100.00000      30.00000  
fld1900              500.00000     100.00000      30.00000  
fld1910              500.00000     100.00000      30.00000  
fld1920              500.00000     100.00000      30.00000  
fld1930              500.00000     100.00000      30.00000  
fld1940              500.00000     100.00000      30.00000  
fld1950              500.00000     100.00000      30.00000  
fld1960              500.00000     100.00000      30.00000  
fld1970              500.00000     100.00000      30.00000  
fld1980              500.00000     100.00000      30.00000  
fld1990              500.00000     100.00000      30.00000  
fld2000              500.00000     100.00000      30.00000  
fld2010              500.00000     100.00000      30.00000  
fld2020              500.00000     100.00000      30.00000  
fld2030              500.00000     100.00000      30.00000  
fld2040              500.00000     100.00000      30.00000  
fld2050              500.00000     100.00000      30.00000  
fld2060              500.00000     100.00000      30.00000  
fld2070              500.00000     100.00000      30.00000  
fld2080              500.00000     100.00000      30.00000  
fld2090              500.00000     100.00000      30.00000  
fld2100              500.00000     100.00000      30.00000  
fld2110              500.00000     100.00000      30.00000  
fld2120              500.00000     100.00000      30.00000  
fld2130              500.00000     100.00000      30.00000  
fld2140              500.00000     100.00000      30.00000  
fld2150              500.00000     100.00000      30.00000  
fld2160              500.00000     100.00000      30.00000  
fld2170              500.00000     100.00000      30.00000  
fld2180              500.00000     100.00000      30.00000  
fld2190              500.00000     100.00000      30.00000  
fld2200              500.00000     100.00000      30.00000  
fld2210              500.00000     100.00000      30.00000  
fld2220              500.00000     100.00000      30.00000  
fld2230              500.00000     100.00000      30.00000  
fld2240              500.00000     100.00000      30.00000  
fld2250              500.00000     100.00000      30.00000  
fld2260              500.00000     100.00000      30.00000  
fld2270              500.00000     100.00000      30.00000  
fld2280              500.00000     100.00000      30.00000  
fld2290              500.00000     100.00000      30.00000  
fld2300              500.00000     100.00000      30.00000  
fld2310              500.00000     100.00000      30.00000  
fld2320              500.00000     100.00000      30.00000  
fld2330              500.00000     100.00000      30.00000  
fld2340              500.00000     100.00000      30.00000  
fld2350              500.00000     100.00000      30.00000  
fld2360              500.00000     100.00000      30.00000  
fld2370              500.00000     100.00000      30.00000  
fld2380              500.00000     100.00000      30.00000  
fld2390              500.00000     100.00000      30.00000  
fld2400              500.00000     100.00000      30.00000  
fld2410              500.00000     100.00000      30.00000  
fld2420              500.00000     100.00000      30.00000  
fld2430              500.00000     100.00000      30.00000  
fld2440              500.00000     100.00000      30.00000  
fld2450              500.00000     100.00000      30.00000  
fld2460              500.00000     100.00000      30.00000  
fld2470              500.00000     100.00000      30.00000  
fld2480              500.00000     100.00000      30.00000  
fld2490              500.00000     100.00000      30.00000  
fld2500              500.00000     100.00000      30.00000  
fld2510              500.00000     100.00000      30.00000  
fld2520              500.00000     100.00000      30.00000  
fld2530              500.00000     100.00000      30.00000  
fld2540              500.00000     100.00000      30.00000  
fld2550              500.00000     100.00000      30.00000  
fld2560              500.00000     100.00000      30.00000  
fld2570              500.00000     100.00000      30.00000  
fld2580              500.00000     100.00000      30.00000  
fld2590              500.00000     100.00000      30.00000  
fld2600              500.00000     100.00000      30.00000  
fld2610              500.00000     100.00000      30.00000  
fld2620              500.00000     100.00000      30.00000  
fld2630              500.00000     100.00000      30.00000  
fld2640              500.00000     100.00000      30.00000  
fld2650              500.00000     100.00000      30.00000  
fld2660              500.00000     100.00000      30.00000  
fld2670              500.00000     100.00000      30.00000  
fld2680              500.00000     100.00000      30.00000  
fld2690              500.00000     100.00000      30.00000  
fld2700              500.00000     100.00000      30.00000  
fld2710              500.00000     100.00000      30.00000  
fld2720              500.00000     100.00000      30.00000  
fld2730              500.00000     100.00000      30.00000  
fld2740              500.00000     100.00000      30.00000  
fld2750              500.00000     100.00000      30.00000  
fld2760              500.00000     100.00000      30.00000  
fld2770              500.00000     100.00000      30.00000  
fld2780              500.00000     100.00000      30.00000  
fld2790              500.00000     100.00000      30.00000  
fld2800              500.00000     100.00000      30.00000  
fld2810              500.00000     100.00000      30.00000  
fld2820              500.00000     100.00000      30.00000  
fld2830              500.00000     100.00000      30.00000  
fld2840              500.00000     100.00000      30.00000  
fld2850              500.00000     100.00000      30.00000  
fld2860              500.00000     100.00000      30.00000  
fld2870              500.00000     100.00000      30.00000  
fld2880              500.00000     100.00000      30.00000  
fld2890              500.00000     100.00000      30.00000  
fld2900              500.00000     100.00000      30.00000  
fld2910              500.00000     100.00000      30.00000  
fld2920              500.00000     100.00000      30.00000  
fld2930              500.00000     100.00000      30.00000  
fld2940              500.00000     100.00000      30.00000  
fld2950              500.00000     100.00000      30.00000  
fld2960              500.00000     100.00000      30.00000  
fld2970              500.00000     100.00000      30.00000  
fld2980              500.00000     100.00000      30.00000  
fld2990              500.00000     100.00000      30.00000  
fld3000              500.00000     100.00000      30.00000  
fld3010              500.00000     100.00000      30.00000  
fld3020              500.00000     100.00000      30.00000  
fld3030              500.00000     100.00000      30.00000  
fld3040              500.00000     100.00000      30.00000  
fld3050              500.00000     100.00000      30.00000  
fld3060              500.00000     100.00000      30.00000  
fld3070              500.00000     100.00000      30.00000  
fld3080              500.00000     100.00000      30.00000  
fld3090              500.00000     100.00000      30.00000  
fld3100              500.00000     100.00000      30.00000  
fld3110              500.00000     100.00000      30.00000  
fld3120              500.00000     100.00000      30.00000  
fld3130              500.00000     100.00000      30.00000  
fld3140              500.00000     100.00000      30.00000  
fld3150              500.00000     100.00000      30.00000  
fld3160              500.00000     100.00000      30.00000  
fld3170              500.00000     100.00000      30.00000  
fld3180              500.00000     100.00000      30.00000  
fld3190              500.00000     100.00000      30.00000  
fld3200              500.00000     100.00000      30.00000  
fld3210              500.00000     100.00000      30.00000  
fld3220              500.00000     100.00000      30.00000  
fld3230              500.00000     100.00000      30.00000  
fld3240              500.00000     100.00000      30.00000  
fld3250              500.00000     100.00000      30.00000  
fld3260              500.00000     100.00000      30.00000  
fld3270              500.00000     100.00000      30.00000  
fld3280              500.00000     100.00000      30.00000  
fld3290              500.00000     100.00000      30.00000  
fld3300              500.00000     100.00000      30.00000  
fld3310              500.00000     100.00000      30.00000  
fld3320              500.00000     100.00000      30.00000  
fld3330              500.00000     100.00000      30.00000  
fld3340              500.00000     100.00000      30.00000  
fld3350              500.00000     100.00000      30.00000  
fld3360              500.00000     100.00000      30.00000  
fld3370              500.00000     100.00000      30.00000  
fld3380              500.00000     100.00000      30.00000  
fld3390              500.00000     100.00000      30.00000  
fld3400              500.00000     100.00000      30.00000  
fld3410              500.00000     100.00000      30.00000  
fld3420              500.00000     100.00000      30.00000  
fld3430              500.00000     100.00000      30.00000  
fld3440              500.00000     100.00000      30.00000  
fld3450              500.00000     100.00000      30.00000  
fld3460              500.00000     100.00000      30.00000  
fld3470              500.00000     100.00000      30.00000  
fld3480              500.00000     100.00000      30.00000  
fld3490              500.00000     100.00000      30.00000  
fld3500              500.00000     100.00000      30.00000  
fld3510              500.00000     100.00000      30.00000  
fld3520              500.00000     100.00000      30.00000  
fld3530              500.00000     100.00000      30.00000  
fld3540              500.00000     100.00000      30.00000  
fld3550              500.00000     100.00000      30.00000  
fld3560              500.00000     100.00000      30.00000  
fld3570              500.00000     100.00000      30.00000  
fld3580              500.00000     100.00000      30.00000  
fld3590              500.00000     100.00000      30.00000  
fld3600              500.00000     100.00000      30.00000  
fld3610              500.00000     100.00000      30.00000  
fld3620              500.00000     100.00000      30.00000  
fld3630              500.00000     100.00000      30.00000  
fld3640              500.00000     100.00000      30.00000  
fld3650              500.00000     100.00000      30.00000  
fld3660              500.00000     100.00000      30.00000  
fld3670              500.00000     100.00000      30.00000  
fld3680              500.00000     100.00000      30.00000  
fld3690              500.00000     100.00000      30.00000  
fld3700              500.00000     100.00000      30.00000  
fld3710              500.00000     100.00000      30.00000  
fld3720              500.00000     100.00000      30.00000  
fld3730              500.00000     100.00000      30.00000  
fld3740              500.00000     100.00000      30.00000  
fld3750              500.00000     100.00000      30.00000  
fld3760              500.00000     100.00000      30.00000  
fld3770              500.00000     100.00000      30.00000  
fld3780              500.00000     100.00000      30.00000  
fld3790              500.00000     100.00000      30.00000  
fld3800              500.00000     100.00000      30.00000  
fld3810              500.00000     100.00000      30.00000  
fld3820              500.00000     100.00000      30.00000  
fld3830              500.00000     100.00000      30.00000  
fld3840              500.00000     100.00000      30.00000  
fld3850              500.00000     100.00000      30.00000  
fld3860              500.00000     100.00000      30.00000  
fld3870              500.00000     100.00000      30.00000  
fld3880              500.00000     100.00000      30.00000  
fld3890              500.00000     100.00000      30.00000  
fld3900              500.00000     100.00000      30.00000  
fld3910              500.00000     100.00000      30.00000  
fld3920              500.00000     100.00000      30.00000  
fld3930              500.00000     100.00000      30.00000  
fld3940              500.00000     100.00000      30.00000  
fld3950              500.00000     100.00000      30.00000  
fld3960              500.00000     100.00000      30.00000  
fld3970              500.00000     100.00000      30.00000  
fld3980              500.00000     100.00000      30.00000  
fld3990              500.00000     100.00000      30.00000  
fld4000              500.00000     100.00000      30.00000  
fld4010              500.00000     100.00000      30.00000  
fld4020              500.00000     100.00000      30.00000  
fld4030              500.00000     100.00000      30.00000  
fld4040              500.00000     100.00000      30.00000  
fld4050              500.00000     100.00000      30.00000  
fld4060              500.00000     100.00000      30.00000  
fld4070              500.00000     100.00000      30.00000  
fld4080              500.00000     100.00000      30.00000  
fld4090              500.00000     100.00000      30.00000  
fld4100              500.00000     100.00000      30.00000  
fld4110              500.00000     100.00000      30.00000  
fld4120              500.00000     100.00000      30.00000  
fld4130              500.00000     100.00000      30.00000  
fld4140              500.00000     100.00000      30.00000  
fld4150              500.00000     100.00000      30.00000  
fld4160              500.00000     100.00000      30.00000  
fld4170              500.00000     100.00000      30.00000  
fld4180              500.00000     100.00000      30.00000  
fld4190              500.00000     100.00000      30.00000  
fld4200              500.00000     100.00000      30.00000  
fld4210              500.00000     100.00000      30.00000  
fld4220              500.00000     100.00000      30.00000  
fld4230              500.00000     100.00000      30.00000  
fld4240              500.00000     100.00000      30.00000  
fld4250              500.00000     100.00000      30.00000  
fld4260              500.00000     100.00000      30.00000  
fld4270              500.00000     100.00000      30.00000  
fld4280              500.00000     100.00000      30.00000  
fld4290              500.00000     100.00000      30.00000  
fld4300              500.00000     100.00000      30.00000  
fld4310              500.00000     100.00000      30.00000  
fld4320              500.00000     100.00000      30.00000  
fld4330              500.00000     100.00000      30.00000  
fld4340              500.00000     100.00000      30.00000  
fld4350              500.00000     100.00000      30.00000  
fld4360              500.00000     100.00000      30.00000  
fld4370              500.00000     100.00000      30.00000  
fld4380              500.00000     100.00000      30.00000  
fld4390              500.00000     100.00000      30.00000  
fld4400              500.00000     100.00000      30.00000  
fld4410              500.00000     100.00000      30.00000  
fld4420              500.00000     100.00000      30.00000  
fld4430              500.00000     100.00000      30.00000  
fld4440              500.00000     100.00000      30.00000  
fld4450              500.00000     100.00000      30.00000  
fld4460              500.00000     100.00000      30.00000  
fld4470              500.00000     100.00000      30.00000  
fld4480              500.00000     100.00000      30.00000  
fld4490              500.00000     100.00000      30.00000  
fld4500              500.00000     100.00000      30.00000  
fld4510              500.00000     100.00000      30.00000  
fld4520              500.00000     100.00000      30.00000  
fld4530              500.00000     100.00000      30.00000  
fld4540              500.00000     100.00000      30.00000  
fld4550              500.00000     100.00000      30.00000  
fld4560              500.00000     100.00000      30.00000  
fld4570              500.00000     100.00000      30.00000  
fld4580              500.00000     100.00000      30.00000  
fld4590              500.00000     100.00000      30.00000  
fld4600              500.00000     100.00000      30.00000  
fld4610              500.00000     100.00000      30.00000  
fld4620              500.00000     100.00000      30.00000  
fld4630              500.00000     100.00000      30.00000  
fld4640              500.00000     100.00000      30.00000  
fld4650              500.00000     100.00000      30.00000  
fld4660              500.00000     100.00000      30.00000  
fld4670              500.00000     100.00000      30.00000  
fld4680              500.00000     100.00000      30.00000  
fld4690              500.00000     100.00000      30.00000  
fld4700              500.00000     100.00000      30.00000  
fld4710              500.00000     100.00000      30.00000  
fld4720              500.00000     100.00000      30.00000  
fld4730              500.00000     100.00000      30.00000  
fld4740              500.00000     100.00000      30.00000  
fld4750              500.00000     100.00000      30.00000  
fld4760              500.00000     100.00000      30.00000  
fld4770              500.00000     100.00000      30.00000  
fld4780              500.00000     100.00000      30.00000  
fld4790              500.00000     100.00000      30.00000  
fld4800              500.00000     100.00000      30.00000  
fld4810              500.00000     100.00000      30.00000  
fld4820              500.00000     100.00000      30.00000  
fld4830              500.00000     100.00000      30.00000  
fld4840              500.00000     100.00000      30.00000  
fld4850              500.00000     100.00000      30.00000  
fld4860              500.00000     100.00000      30.00000  
fld4870              500.00000     100.00000      30.00000  
fld4880              500.00000     100.00000      30.00000  
fld4890              500.00000     100.00000      30.00000  