ls_unit.def: written by SWAT+ editor v3.0.8 on 2025-07-29 21:28 for SWAT+ rev.61.0.1
561
      id              name          area  elem_tot  elements  
       1           rtu0010     422.50240         1        11  
       2           rtu0020     472.39680         1         4  
       3           rtu0030     361.70240         1        13  
       4           rtu0040     240.20480         1         7  
       5           rtu0050     820.94080         1         2  
       6           rtu0060     600.37120         1        19  
       7           rtu0070     311.27040         1        17  
       8           rtu0080     355.71200         1        20  
       9           rtu0090     169.95840         1         9  
      10           rtu0100      31.10400         1        18  
      11           rtu0110     524.18560         1         1  
      12           rtu0120     158.89920         1        10  
      13           rtu0130     231.04000         1         5  
      14           rtu0140     238.95040         1         8  
      15           rtu0150     432.58880         1        48  
      16           rtu0160    1247.18080         1         6  
      17           rtu0170     226.66240         1        16  
      18           rtu0180     582.65600         1        41  
      19           rtu0190     245.88800         1        51  
      20           rtu0200     808.57600         1         3  
      21           rtu0210     221.36320         1        53  
      22           rtu0220       2.71360         1        52  
      23           rtu0230     352.23040         1        49  
      24           rtu0240     462.08000         1        38  
      25           rtu0250     832.17920         1        54  
      26           rtu0260     721.48480         1        43  
      27           rtu0270     340.01920         1        39  
      28           rtu0280     279.47520         1        46  
      29           rtu0290     279.37280         1       109  
      30           rtu0300     472.55040         1        47  
      31           rtu0310     325.04320         1       108  
      32           rtu0320     749.64480         1        55  
      33           rtu0330      73.01120         1        15  
      34           rtu0340    1437.82400         1        12  
      35           rtu0350     480.25600         1        42  
      36           rtu0360    1245.61920         1       111  
      37           rtu0370     295.19360         1        40  
      38           rtu0380     533.12000         1        44  
      39           rtu0390     454.75840         1        72  
      40           rtu0400     257.79200         1        58  
      41           rtu0410    1142.68160         1       119  
      42           rtu0420    1144.26880         1        21  
      43           rtu0430     686.97600         1        68  
      44           rtu0440     206.02880         1        62  
      45           rtu0450      14.31040         1        60  
      46           rtu0460      22.68160         1        57  
      47           rtu0470     371.76320         1        80  
      48           rtu0480     405.06880         1       136  
      49           rtu0490     107.46880         1        45  
      50           rtu0500     450.25280         1       113  
      51           rtu0510     144.74240         1        50  
      52           rtu0520     186.31680         1        59  
      53           rtu0530     132.40320         1        67  
      54           rtu0540     200.70400         1        78  
      55           rtu0550     318.46400         1        14  
      56           rtu0560     231.21920         1       142  
      57           rtu0570     281.60000         1       120  
      58           rtu0580     486.91200         1       150  
      59           rtu0590     342.47680         1       147  
      60           rtu0600     298.70080         1        56  
      61           rtu0610     220.49280         1       138  
      62           rtu0620     416.20480         1        61  
      63           rtu0630      46.05440         1       141  
      64           rtu0640     381.18400         1        79  
      65           rtu0650     219.52000         1        27  
      66           rtu0660      99.27680         1        23  
      67           rtu0670     220.64640         1       115  
      68           rtu0680    1180.85120         1       121  
      69           rtu0690     500.48000         1       154  
      70           rtu0700     684.54400         1       140  
      71           rtu0710     243.43040         1       110  
      72           rtu0720     376.06400         1       116  
      73           rtu0730     441.19040         1       137  
      74           rtu0740     644.53120         1        70  
      75           rtu0750     219.34080         1        26  
      76           rtu0760     155.82720         1        22  
      77           rtu0770     489.95840         1       148  
      78           rtu0780     245.88800         1        74  
      79           rtu0790      13.10720         1        25  
      80           rtu0800     234.34240         1        24  
      81           rtu0810     216.70400         1       112  
      82           rtu0820     258.09920         1        63  
      83           rtu0830     425.26720         1       155  
      84           rtu0840     626.58560         1        69  
      85           rtu0850      43.26400         1        65  
      86           rtu0860     992.56320         1        28  
      87           rtu0870     106.16320         1       152  
      88           rtu0880     241.97120         1       146  
      89           rtu0890     317.00480         1       139  
      90           rtu0900     293.29920         1        77  
      91           rtu0910     216.93440         1        64  
      92           rtu0920     196.78720         1        66  
      93           rtu0930     135.37280         1       117  
      94           rtu0940       2.17600         1       145  
      95           rtu0950      63.48800         1        73  
      96           rtu0960     319.87200         1       153  
      97           rtu0970       7.55200         1       143  
      98           rtu0980      83.99360         1       151  
      99           rtu0990      36.71040         1       144  
     100           rtu1000      57.08800         1        76  
     101           rtu1010    1433.47200         1       170  
     102           rtu1020     282.64960         1       114  
     103           rtu1030      38.70720         1       149  
     104           rtu1040     240.02560         1        90  
     105           rtu1050     489.88160         1       124  
     106           rtu1060     359.80800         1        75  
     107           rtu1070     471.75680         1       157  
     108           rtu1080     226.17600         1        85  
     109           rtu1090      35.20000         1       118  
     110           rtu1100     796.16000         1        71  
     111           rtu1110     884.71040         1       197  
     112           rtu1120     182.27200         1        82  
     113           rtu1130     475.49440         1       130  
     114           rtu1140     840.80640         1       202  
     115           rtu1150     542.59200         1        30  
     116           rtu1160    1037.10720         1       169  
     117           rtu1170     428.62080         1        31  
     118           rtu1180     370.68800         1       122  
     119           rtu1190     389.86240         1        35  
     120           rtu1200     226.81600         1       160  
     121           rtu1210     334.33600         1       156  
     122           rtu1220      13.08160         1       131  
     123           rtu1230     301.77280         1        83  
     124           rtu1240     767.97440         1       227  
     125           rtu1250      22.01600         1       129  
     126           rtu1260     220.64640         1       132  
     127           rtu1270     686.15680         1       207  
     128           rtu1280     548.71040         1       123  
     129           rtu1290     263.83360         1       238  
     130           rtu1300      49.22880         1       126  
     131           rtu1310     272.69120         1       239  
     132           rtu1320     777.62560         1       249  
     133           rtu1330     101.45280         1       158  
     134           rtu1340      96.46080         1       128  
     135           rtu1350      67.17440         1        32  
     136           rtu1360     707.04640         1        29  
     137           rtu1370     547.68640         1        87  
     138           rtu1380     625.35680         1       159  
     139           rtu1390     536.03840         1       229  
     140           rtu1400     580.65920         1       230  
     141           rtu1410     524.36480         1        34  
     142           rtu1420     263.42400         1        89  
     143           rtu1430     466.09920         1       240  
     144           rtu1440     304.87040         1       171  
     145           rtu1450     242.04800         1       172  
     146           rtu1460     297.80480         1       244  
     147           rtu1470     703.84640         1        37  
     148           rtu1480      38.32320         1        84  
     149           rtu1490     109.08160         1       127  
     150           rtu1500     291.02080         1        88  
     151           rtu1510     300.64640         1       250  
     152           rtu1520       6.88640         1       173  
     153           rtu1530     792.26880         1        91  
     154           rtu1540     153.03680         1       228  
     155           rtu1550      41.83040         1       201  
     156           rtu1560     379.59680         1       174  
     157           rtu1570     359.91040         1       125  
     158           rtu1580     812.08320         1       251  
     159           rtu1590     304.46080         1        81  
     160           rtu1600     207.12960         1       242  
     161           rtu1610     237.38880         1       241  
     162           rtu1620     328.90880         1       194  
     163           rtu1630     239.46240         1       166  
     164           rtu1640     362.08640         1       133  
     165           rtu1650     269.90080         1       243  
     166           rtu1660     291.48160         1       162  
     167           rtu1670     433.45920         1       175  
     168           rtu1680      42.77760         1       165  
     169           rtu1690     225.04960         1        86  
     170           rtu1700     283.98080         1       161  
     171           rtu1710     646.37440         1       177  
     172           rtu1720      73.62560         1        36  
     173           rtu1730      21.17120         1       134  
     174           rtu1740     518.98880         1       226  
     175           rtu1750     239.15520         1       236  
     176           rtu1760       0.99840         1       163  
     177           rtu1770     522.98240         1       164  
     178           rtu1780     426.36800         1       199  
     179           rtu1790      21.88800         1       135  
     180           rtu1800     153.42080         1        92  
     181           rtu1810     153.93280         1       232  
     182           rtu1820     351.30880         1        95  
     183           rtu1830     156.54400         1       191  
     184           rtu1840     382.13120         1       246  
     185           rtu1850    1113.08800         1        33  
     186           rtu1860     378.29120         1       252  
     187           rtu1870     981.93920         1       176  
     188           rtu1880       4.14720         1       235  
     189           rtu1890     208.66560         1       237  
     190           rtu1900     411.28960         1       231  
     191           rtu1910     233.98400         1       178  
     192           rtu1920     533.22240         1       277  
     193           rtu1930     808.90880         1       283  
     194           rtu1940      51.73760         1        94  
     195           rtu1950     736.23040         1        97  
     196           rtu1960      43.39200         1       254  
     197           rtu1970     332.18560         1       221  
     198           rtu1980     504.29440         1       245  
     199           rtu1990     290.66240         1       179  
     200           rtu2000     262.55360         1       189  
     201           rtu2010     206.15680         1       255  
     202           rtu2020      70.47680         1       223  
     203           rtu2030      33.61280         1       180  
     204           rtu2040     514.63680         1       253  
     205           rtu2050     478.02880         1        93  
     206           rtu2060     573.33760         1       290  
     207           rtu2070     749.84960         1       276  
     208           rtu2080     320.66560         1       216  
     209           rtu2090     236.33920         1       181  
     210           rtu2100     465.94560         1       285  
     211           rtu2110     382.74560         1       190  
     212           rtu2120     568.78080         1       274  
     213           rtu2130     345.11360         1       284  
     214           rtu2140     369.81760         1        96  
     215           rtu2150     587.26400         1       211  
     216           rtu2160     735.33440         1       219  
     217           rtu2170     266.75200         1       234  
     218           rtu2180     778.93120         1       212  
     219           rtu2190     319.30880         1       294  
     220           rtu2200      80.38400         1       233  
     221           rtu2210     217.47200         1       167  
     222           rtu2220     489.60000         1        98  
     223           rtu2230     911.00160         1       261  
     224           rtu2240       4.99200         1       168  
     225           rtu2250     310.40000         1       280  
     226           rtu2260      65.43360         1       257  
     227           rtu2270     375.39840         1       256  
     228           rtu2280     597.19680         1       278  
     229           rtu2290     401.84320         1       101  
     230           rtu2300      20.88960         1       293  
     231           rtu2310      44.18560         1       287  
     232           rtu2320     377.85600         1       291  
     233           rtu2330     212.19840         1       271  
     234           rtu2340     261.45280         1       269  
     235           rtu2350     190.23360         1        99  
     236           rtu2360     228.40320         1       105  
     237           rtu2370     723.91680         1       304  
     238           rtu2380     537.85600         1       183  
     239           rtu2390      46.69440         1       273  
     240           rtu2400     408.88320         1       204  
     241           rtu2410     304.12800         1       258  
     242           rtu2420     896.58880         1       182  
     243           rtu2430       0.07680         1       104  
     244           rtu2440     321.20320         1       102  
     245           rtu2450    1190.47680         1       336  
     246           rtu2460     273.94560         1       286  
     247           rtu2470     242.45760         1       100  
     248           rtu2480     285.82400         1       289  
     249           rtu2490     260.19840         1       270  
     250           rtu2500     199.70560         1       193  
     251           rtu2510     369.48480         1       195  
     252           rtu2520     647.37280         1       300  
     253           rtu2530     936.49920         1       298  
     254           rtu2540     317.79840         1       318  
     255           rtu2550     105.08800         1       275  
     256           rtu2560     231.60320         1       317  
     257           rtu2570     199.32160         1       247  
     258           rtu2580     258.61120         1       248  
     259           rtu2590    1593.75360         1       281  
     260           rtu2600     230.19520         1       313  
     261           rtu2610     212.99200         1       288  
     262           rtu2620     292.07040         1       107  
     263           rtu2630     111.33440         1       292  
     264           rtu2640     367.28320         1       192  
     265           rtu2650     205.49120         1       259  
     266           rtu2660     559.71840         1       272  
     267           rtu2670     859.03360         1       316  
     268           rtu2680     318.25920         1       312  
     269           rtu2690      42.67520         1       262  
     270           rtu2700     352.33280         1       206  
     271           rtu2710     190.89920         1       103  
     272           rtu2720     358.34880         1       225  
     273           rtu2730     717.08160         1       319  
     274           rtu2740      27.75040         1       220  
     275           rtu2750     274.84160         1       308  
     276           rtu2760     427.41760         1       224  
     277           rtu2770     211.50720         1       263  
     278           rtu2780     231.57760         1       310  
     279           rtu2790     490.03520         1       198  
     280           rtu2800     203.13600         1       296  
     281           rtu2810      12.72320         1       295  
     282           rtu2820      78.61760         1       297  
     283           rtu2830     275.81440         1       217  
     284           rtu2840     531.84000         1       320  
     285           rtu2850     594.58560         1       315  
     286           rtu2860     378.88000         1       222  
     287           rtu2870     138.64960         1       106  
     288           rtu2880     117.42720         1       299  
     289           rtu2890      77.18400         1       302  
     290           rtu2900      24.34560         1       185  
     291           rtu2910     379.31520         1       321  
     292           rtu2920     467.78880         1       342  
     293           rtu2930     210.50880         1       184  
     294           rtu2940     296.49920         1       309  
     295           rtu2950       7.57760         1       322  
     296           rtu2960     454.22080         1       347  
     297           rtu2970    1215.33440         1       187  
     298           rtu2980     261.73440         1       305  
     299           rtu2990     365.46560         1       323  
     300           rtu3000     879.41120         1       340  
     301           rtu3010     387.73760         1       307  
     302           rtu3020     999.62880         1       324  
     303           rtu3030     270.84800         1       268  
     304           rtu3040     226.71360         1       265  
     305           rtu3050     880.46080         1       450  
     306           rtu3060     478.36160         1       215  
     307           rtu3070     729.93280         1       196  
     308           rtu3080     494.10560         1       326  
     309           rtu3090     239.94880         1       260  
     310           rtu3100      35.66080         1       218  
     311           rtu3110      11.57120         1       266  
     312           rtu3120     248.03840         1       209  
     313           rtu3130     530.66240         1       355  
     314           rtu3140       1.89440         1       301  
     315           rtu3150     436.94080         1       213  
     316           rtu3160     400.94720         1       303  
     317           rtu3170     224.61440         1       332  
     318           rtu3180     140.00640         1       306  
     319           rtu3190     204.13440         1       349  
     320           rtu3200       4.55680         1       267  
     321           rtu3210     231.70560         1       210  
     322           rtu3220     542.33600         1       348  
     323           rtu3230     544.76800         1       264  
     324           rtu3240     321.79200         1       364  
     325           rtu3250     247.42400         1       362  
     326           rtu3260     327.44960         1       311  
     327           rtu3270     359.21920         1       361  
     328           rtu3280      40.42240         1       208  
     329           rtu3290     418.81600         1       327  
     330           rtu3300      25.13920         1       343  
     331           rtu3310     482.86720         1       203  
     332           rtu3320    1002.88000         1       350  
     333           rtu3330     584.57600         1       282  
     334           rtu3340     450.15040         1       368  
     335           rtu3350     238.66880         1       363  
     336           rtu3360     231.65440         1       314  
     337           rtu3370       5.12000         1       214  
     338           rtu3380     769.99680         1       344  
     339           rtu3390     205.79840         1       338  
     340           rtu3400     191.89760         1       365  
     341           rtu3410     760.21760         1       425  
     342           rtu3420     167.01440         1       345  
     343           rtu3430     147.78880         1       331  
     344           rtu3440     344.57600         1       427  
     345           rtu3450     241.99680         1       358  
     346           rtu3460     420.35200         1       354  
     347           rtu3470     200.88320         1       279  
     348           rtu3480     703.61600         1       452  
     349           rtu3490     267.46880         1       376  
     350           rtu3500     251.21280         1       200  
     351           rtu3510     467.68640         1       384  
     352           rtu3520     400.12800         1       451  
     353           rtu3530      27.26400         1       329  
     354           rtu3540     129.86880         1       372  
     355           rtu3550     209.22880         1       359  
     356           rtu3560     328.21760         1       473  
     357           rtu3570     286.74560         1       205  
     358           rtu3580     905.60000         1       396  
     359           rtu3590     694.16960         1       489  
     360           rtu3600     353.86880         1       428  
     361           rtu3610     437.06880         1       186  
     362           rtu3620     235.80160         1       474  
     363           rtu3630     281.72800         1       386  
     364           rtu3640     758.80960         1       325  
     365           rtu3650     209.04960         1       387  
     366           rtu3660     305.30560         1       352  
     367           rtu3670     701.13280         1       346  
     368           rtu3680     178.63680         1       377  
     369           rtu3690     110.00320         1       351  
     370           rtu3700     621.69600         1       393  
     371           rtu3710     307.99360         1       360  
     372           rtu3720     390.47680         1       375  
     373           rtu3730     374.63040         1       410  
     374           rtu3740     402.56000         1       453  
     375           rtu3750     219.49440         1       466  
     376           rtu3760      88.24320         1       379  
     377           rtu3770    2059.41760         1       522  
     378           rtu3780      81.63840         1       357  
     379           rtu3790     430.97600         1       488  
     380           rtu3800      17.53600         1       383  
     381           rtu3810     155.31520         1       353  
     382           rtu3820     630.14400         1       417  
     383           rtu3830     117.76000         1       374  
     384           rtu3840     202.93120         1       414  
     385           rtu3850     129.43360         1       356  
     386           rtu3860      51.25120         1       418  
     387           rtu3870     283.46880         1       442  
     388           rtu3880     624.48640         1       454  
     389           rtu3890     499.17440         1       485  
     390           rtu3900       7.39840         1       188  
     391           rtu3910     356.99200         1       334  
     392           rtu3920      83.68640         1       392  
     393           rtu3930     232.44800         1       439  
     394           rtu3940     544.07680         1       402  
     395           rtu3950     120.06400         1       405  
     396           rtu3960     738.27840         1       394  
     397           rtu3970     244.88960         1       456  
     398           rtu3980     304.40960         1       398  
     399           rtu3990     636.49280         1       337  
     400           rtu4000     284.10880         1       404  
     401           rtu4010       4.94080         1       441  
     402           rtu4020     377.08800         1       462  
     403           rtu4030     243.58400         1       411  
     404           rtu4040     227.66080         1       431  
     405           rtu4050     439.52640         1       468  
     406           rtu4060     599.34720         1       412  
     407           rtu4070     873.19040         1       490  
     408           rtu4080      17.79200         1       457  
     409           rtu4090     149.09440         1       395  
     410           rtu4100     161.35680         1       463  
     411           rtu4110     239.20640         1       443  
     412           rtu4120     149.91360         1       406  
     413           rtu4130     311.60320         1       328  
     414           rtu4140     303.02720         1       487  
     415           rtu4150     692.91520         1       426  
     416           rtu4160       5.22240         1       458  
     417           rtu4170     366.84800         1       415  
     418           rtu4180     590.48960         1       504  
     419           rtu4190     534.68160         1       335  
     420           rtu4200      54.45120         1       460  
     421           rtu4210     129.35680         1       369  
     422           rtu4220     133.27360         1       437  
     423           rtu4230      83.30240         1       397  
     424           rtu4240     302.46400         1       407  
     425           rtu4250     236.39040         1       470  
     426           rtu4260    2341.86240         1       518  
     427           rtu4270     754.20160         1       413  
     428           rtu4280     504.75520         1       409  
     429           rtu4290      15.61600         1       465  
     430           rtu4300     713.80480         1       483  
     431           rtu4310     220.00640         1       403  
     432           rtu4320     291.25120         1       367  
     433           rtu4330     247.06560         1       429  
     434           rtu4340     687.89760         1       366  
     435           rtu4350     220.72320         1       341  
     436           rtu4360     425.24160         1       408  
     437           rtu4370       1.48480         1       399  
     438           rtu4380       2.48320         1       467  
     439           rtu4390     510.74560         1       435  
     440           rtu4400     209.71520         1       401  
     441           rtu4410      46.95040         1       400  
     442           rtu4420     392.57600         1       461  
     443           rtu4430      60.18560         1       484  
     444           rtu4440      32.00000         1       339  
     445           rtu4450     487.37280         1       476  
     446           rtu4460     252.46720         1       505  
     447           rtu4470     284.16000         1       481  
     448           rtu4480     226.35520         1       330  
     449           rtu4490     362.59840         1       500  
     450           rtu4500     273.02400         1       480  
     451           rtu4510     260.91520         1       390  
     452           rtu4520    1104.48640         1       438  
     453           rtu4530     105.24160         1       333  
     454           rtu4540      19.12320         1       419  
     455           rtu4550     216.29440         1       391  
     456           rtu4560     212.58240         1       455  
     457           rtu4570     640.79360         1       389  
     458           rtu4580     222.61760         1       378  
     459           rtu4590      44.46720         1       420  
     460           rtu4600     186.31680         1       464  
     461           rtu4610     396.46720         1       459  
     462           rtu4620       6.98880         1       491  
     463           rtu4630     454.83520         1       492  
     464           rtu4640     280.70400         1       416  
     465           rtu4650     384.81920         1       471  
     466           rtu4660     814.05440         1       370  
     467           rtu4670     785.17760         1       421  
     468           rtu4680      13.28640         1       479  
     469           rtu4690     233.70240         1       475  
     470           rtu4700     605.61920         1       422  
     471           rtu4710     314.93120         1       499  
     472           rtu4720      96.89600         1       478  
     473           rtu4730       5.58080         1       469  