topography.hyd: written by SWAT+ editor v3.0.8 on 2025-07-29 21:28 for SWAT+ rev.61.0.1
name                       slp       slp_len       lat_len      dist_cha         depos  
topohru001             0.04753      60.00000      60.00000     121.00000       0.00000  
topohru002             0.05255      30.00000      30.00000     121.00000       0.00000  
topohru003             0.05206      30.00000      30.00000     121.00000       0.00000  
topohru004             0.05227      30.00000      30.00000     121.00000       0.00000  
topohru005             0.04858      60.00000      60.00000     121.00000       0.00000  
topohru006             0.01220      90.00000      90.00000     121.00000       0.00000  
topohru007             0.04525      60.00000      60.00000     121.00000       0.00000  
topohru008             0.01188      90.00000      90.00000     121.00000       0.00000  
topohru009             0.04427      60.00000      60.00000     121.00000       0.00000  
topohru010             0.01266      90.00000      90.00000     121.00000       0.00000  
topohru011             0.05795      30.00000      30.00000     121.00000       0.00000  
topohru012             0.01719      90.00000      90.00000     121.00000       0.00000  
topohru013             0.04504      60.00000      60.00000     121.00000       0.00000  
topohru014             0.05440      30.00000      30.00000     121.00000       0.00000  
topohru015             0.00904     121.00000     121.00000     121.00000       0.00000  
topohru016             0.03436      60.00000      60.00000     121.00000       0.00000  
topohru017             0.04431      60.00000      60.00000     121.00000       0.00000  
topohru018             0.04056      60.00000      60.00000     121.00000       0.00000  
topohru019             0.03249      60.00000      60.00000     121.00000       0.00000  
topohru020             0.04768      60.00000      60.00000     121.00000       0.00000  
topohru021             0.06455      30.00000      30.00000     121.00000       0.00000  
topohru022             0.02448      90.00000      90.00000     121.00000       0.00000  
topohru023             0.00520     121.00000     121.00000     121.00000       0.00000  
topohru024             0.03762      60.00000      60.00000     121.00000       0.00000  
topohru025             0.00750     121.00000     121.00000     121.00000       0.00000  
topohru026             0.00953     121.00000     121.00000     121.00000       0.00000  
topohru027             0.04079      60.00000      60.00000     121.00000       0.00000  
topohru028             0.04285      60.00000      60.00000     121.00000       0.00000  
topohru029             0.04764      60.00000      60.00000     121.00000       0.00000  
topohru030             0.04651      60.00000      60.00000     121.00000       0.00000  
topohru031             0.03149      60.00000      60.00000     121.00000       0.00000  
topohru032             0.03731      60.00000      60.00000     121.00000       0.00000  
topohru033             0.04091      60.00000      60.00000     121.00000       0.00000  
topohru034             0.02966      90.00000      90.00000     121.00000       0.00000  
topohru035             0.04025      60.00000      60.00000     121.00000       0.00000  
topohru036             0.02268      90.00000      90.00000     121.00000       0.00000  
topohru037             0.03167      60.00000      60.00000     121.00000       0.00000  
topohru038             0.04231      60.00000      60.00000     121.00000       0.00000  
topohru039             0.02951      90.00000      90.00000     121.00000       0.00000  
topohru040             0.02560      90.00000      90.00000     121.00000       0.00000  
topohru041             0.06314      30.00000      30.00000     121.00000       0.00000  
topohru042             0.02299      90.00000      90.00000     121.00000       0.00000  
topohru043             0.01924      90.00000      90.00000     121.00000       0.00000  
topohru044             0.03072      60.00000      60.00000     121.00000       0.00000  
topohru045             0.02041      90.00000      90.00000     121.00000       0.00000  
topohru046             0.04313      60.00000      60.00000     121.00000       0.00000  
topohru047             0.02038      90.00000      90.00000     121.00000       0.00000  
topohru048             0.07248      30.00000      30.00000     121.00000       0.00000  
topohru049             0.04878      60.00000      60.00000     121.00000       0.00000  
topohru050             0.04078      60.00000      60.00000     121.00000       0.00000  
topohru051             0.06298      30.00000      30.00000     121.00000       0.00000  
topohru052             0.07366      30.00000      30.00000     121.00000       0.00000  
topohru053             0.04769      60.00000      60.00000     121.00000       0.00000  
topohru054             0.06505      30.00000      30.00000     121.00000       0.00000  
topohru055             0.04945      60.00000      60.00000     121.00000       0.00000  
topohru056             0.05086      30.00000      30.00000     121.00000       0.00000  
topohru057             0.03962      60.00000      60.00000     121.00000       0.00000  
topohru058             0.04023      60.00000      60.00000     121.00000       0.00000  
topohru059             0.03651      60.00000      60.00000     121.00000       0.00000  
topohru060             0.03977      60.00000      60.00000     121.00000       0.00000  
topohru061             0.02869      90.00000      90.00000     121.00000       0.00000  
topohru062             0.05043      30.00000      30.00000     121.00000       0.00000  
topohru063             0.02265      90.00000      90.00000     121.00000       0.00000  
topohru064             0.03201      60.00000      60.00000     121.00000       0.00000  
topohru065             0.02066      90.00000      90.00000     121.00000       0.00000  
topohru066             0.02217      90.00000      90.00000     121.00000       0.00000  
topohru067             0.03410      60.00000      60.00000     121.00000       0.00000  
topohru068             0.04127      60.00000      60.00000     121.00000       0.00000  
topohru069             0.03884      60.00000      60.00000     121.00000       0.00000  
topohru070             0.02913      90.00000      90.00000     121.00000       0.00000  
topohru071             0.04777      60.00000      60.00000     121.00000       0.00000  
topohru072             0.04322      60.00000      60.00000     121.00000       0.00000  
topohru073             0.02272      90.00000      90.00000     121.00000       0.00000  
topohru074             0.04251      60.00000      60.00000     121.00000       0.00000  
topohru075             0.02961      90.00000      90.00000     121.00000       0.00000  
topohru076             0.02255      90.00000      90.00000     121.00000       0.00000  
topohru077             0.06773      30.00000      30.00000     121.00000       0.00000  
topohru078             0.03350      60.00000      60.00000     121.00000       0.00000  
topohru079             0.04495      60.00000      60.00000     121.00000       0.00000  
topohru080             0.03005      60.00000      60.00000     121.00000       0.00000  
topohru081             0.01720      90.00000      90.00000     121.00000       0.00000  
topohru082             0.03708      60.00000      60.00000     121.00000       0.00000  
topohru083             0.04848      60.00000      60.00000     121.00000       0.00000  
topohru084             0.03466      60.00000      60.00000     121.00000       0.00000  
topohru085             0.05055      30.00000      30.00000     121.00000       0.00000  
topohru086             0.01738      90.00000      90.00000     121.00000       0.00000  
topohru087             0.01946      90.00000      90.00000     121.00000       0.00000  
topohru088             0.02942      90.00000      90.00000     121.00000       0.00000  
topohru089             0.04696      60.00000      60.00000     121.00000       0.00000  
topohru090             0.03053      60.00000      60.00000     121.00000       0.00000  
topohru091             0.04092      60.00000      60.00000     121.00000       0.00000  
topohru092             0.03273      60.00000      60.00000     121.00000       0.00000  
topohru093             0.04190      60.00000      60.00000     121.00000       0.00000  
topohru094             0.02585      90.00000      90.00000     121.00000       0.00000  
topohru095             0.04697      60.00000      60.00000     121.00000       0.00000  
topohru096             0.05443      30.00000      30.00000     121.00000       0.00000  
topohru097             0.02915      90.00000      90.00000     121.00000       0.00000  
topohru098             0.05274      30.00000      30.00000     121.00000       0.00000  
topohru099             0.03862      60.00000      60.00000     121.00000       0.00000  
topohru100             0.04660      60.00000      60.00000     121.00000       0.00000  
topohru101             0.07742      30.00000      30.00000     121.00000       0.00000  
topohru102             0.03463      60.00000      60.00000     121.00000       0.00000  
topohru103             0.03245      60.00000      60.00000     121.00000       0.00000  
topohru104             0.07837      30.00000      30.00000     121.00000       0.00000  
topohru105             0.06800      30.00000      30.00000     121.00000       0.00000  
topohru106             0.04391      60.00000      60.00000     121.00000       0.00000  
topohru107             0.03544      60.00000      60.00000     121.00000       0.00000  
topohru108             0.09271      10.00000      10.00000     121.00000       0.00000  
topohru109             0.08846      10.00000      10.00000     121.00000       0.00000  
topohru110             0.13076      10.00000      10.00000     121.00000       0.00000  
topohru111             0.07118      30.00000      30.00000     121.00000       0.00000  
topohru112             0.08452      10.00000      10.00000     121.00000       0.00000  
topohru113             0.04567      60.00000      60.00000     121.00000       0.00000  
topohru114             0.01860      90.00000      90.00000     121.00000       0.00000  
topohru115             0.06052      30.00000      30.00000     121.00000       0.00000  
topohru116             0.09440      10.00000      10.00000     121.00000       0.00000  
topohru117             0.02937      90.00000      90.00000     121.00000       0.00000  
topohru118             0.00489     121.00000     121.00000     121.00000       0.00000  
topohru119             0.08140      10.00000      10.00000     121.00000       0.00000  
topohru120             0.08681      10.00000      10.00000     121.00000       0.00000  
topohru121             0.06567      30.00000      30.00000     121.00000       0.00000  
topohru122             0.05879      30.00000      30.00000     121.00000       0.00000  
topohru123             0.04325      60.00000      60.00000     121.00000       0.00000  
topohru124             0.06742      30.00000      30.00000     121.00000       0.00000  
topohru125             0.05960      30.00000      30.00000     121.00000       0.00000  
topohru126             0.02061      90.00000      90.00000     121.00000       0.00000  
topohru127             0.02232      90.00000      90.00000     121.00000       0.00000  
topohru128             0.02817      90.00000      90.00000     121.00000       0.00000  
topohru129             0.03078      60.00000      60.00000     121.00000       0.00000  
topohru130             0.03690      60.00000      60.00000     121.00000       0.00000  
topohru131             0.03974      60.00000      60.00000     121.00000       0.00000  
topohru132             0.02346      90.00000      90.00000     121.00000       0.00000  
topohru133             0.02009      90.00000      90.00000     121.00000       0.00000  
topohru134             0.00809     121.00000     121.00000     121.00000       0.00000  
topohru135             0.00030     121.00000     121.00000     121.00000       0.00000  
topohru136             0.07450      30.00000      30.00000     121.00000       0.00000  
topohru137             0.03177      60.00000      60.00000     121.00000       0.00000  
topohru138             0.05645      30.00000      30.00000     121.00000       0.00000  
topohru139             0.02755      90.00000      90.00000     121.00000       0.00000  
topohru140             0.05644      30.00000      30.00000     121.00000       0.00000  
topohru141             0.05059      30.00000      30.00000     121.00000       0.00000  
topohru142             0.07724      30.00000      30.00000     121.00000       0.00000  
topohru143             0.01012      90.00000      90.00000     121.00000       0.00000  
topohru144             0.00540     121.00000     121.00000     121.00000       0.00000  
topohru145             0.00087     121.00000     121.00000     121.00000       0.00000  
topohru146             0.03359      60.00000      60.00000     121.00000       0.00000  
topohru147             0.04381      60.00000      60.00000     121.00000       0.00000  
topohru148             0.03987      60.00000      60.00000     121.00000       0.00000  
topohru149             0.01253      90.00000      90.00000     121.00000       0.00000  
topohru150             0.07979      30.00000      30.00000     121.00000       0.00000  
topohru151             0.05936      30.00000      30.00000     121.00000       0.00000  
topohru152             0.04196      60.00000      60.00000     121.00000       0.00000  
topohru153             0.03279      60.00000      60.00000     121.00000       0.00000  
topohru154             0.06145      30.00000      30.00000     121.00000       0.00000  
topohru155             0.05686      30.00000      30.00000     121.00000       0.00000  
topohru156             0.04642      60.00000      60.00000     121.00000       0.00000  
topohru157             0.01791      90.00000      90.00000     121.00000       0.00000  
topohru158             0.02215      90.00000      90.00000     121.00000       0.00000  
topohru159             0.02075      90.00000      90.00000     121.00000       0.00000  
topohru160             0.04394      60.00000      60.00000     121.00000       0.00000  
topohru161             0.03514      60.00000      60.00000     121.00000       0.00000  
topohru162             0.02717      90.00000      90.00000     121.00000       0.00000  
topohru163             0.00648     121.00000     121.00000     121.00000       0.00000  
topohru164             0.05222      30.00000      30.00000     121.00000       0.00000  
topohru165             0.02653      90.00000      90.00000     121.00000       0.00000  
topohru166             0.04498      60.00000      60.00000     121.00000       0.00000  
topohru167             0.05259      30.00000      30.00000     121.00000       0.00000  
topohru168             0.02598      90.00000      90.00000     121.00000       0.00000  
topohru169             0.03004      60.00000      60.00000     121.00000       0.00000  
topohru170             0.05670      30.00000      30.00000     121.00000       0.00000  
topohru171             0.02465      90.00000      90.00000     121.00000       0.00000  
topohru172             0.07791      30.00000      30.00000     121.00000       0.00000  
topohru173             0.01784      90.00000      90.00000     121.00000       0.00000  
topohru174             0.05096      30.00000      30.00000     121.00000       0.00000  
topohru175             0.07037      30.00000      30.00000     121.00000       0.00000  
topohru176             0.08736      10.00000      10.00000     121.00000       0.00000  
topohru177             0.08805      10.00000      10.00000     121.00000       0.00000  
topohru178             0.06475      30.00000      30.00000     121.00000       0.00000  
topohru179             0.02905      90.00000      90.00000     121.00000       0.00000  
topohru180             0.02056      90.00000      90.00000     121.00000       0.00000  
topohru181             0.02287      90.00000      90.00000     121.00000       0.00000  
topohru182             0.03726      60.00000      60.00000     121.00000       0.00000  
topohru183             0.02792      90.00000      90.00000     121.00000       0.00000  
topohru184             0.03382      60.00000      60.00000     121.00000       0.00000  
topohru185             0.05511      30.00000      30.00000     121.00000       0.00000  
topohru186             0.05408      30.00000      30.00000     121.00000       0.00000  
topohru187             0.03847      60.00000      60.00000     121.00000       0.00000  
topohru188             0.02064      90.00000      90.00000     121.00000       0.00000  
topohru189             0.05535      30.00000      30.00000     121.00000       0.00000  
topohru190             0.01556      90.00000      90.00000     121.00000       0.00000  
topohru191             0.06015      30.00000      30.00000     121.00000       0.00000  
topohru192             0.02523      90.00000      90.00000     121.00000       0.00000  
topohru193             0.07963      30.00000      30.00000     121.00000       0.00000  
topohru194             0.05315      30.00000      30.00000     121.00000       0.00000  
topohru195             0.04509      60.00000      60.00000     121.00000       0.00000  
topohru196             0.02255      90.00000      90.00000     121.00000       0.00000  
topohru197             0.06189      30.00000      30.00000     121.00000       0.00000  
topohru198             0.04175      60.00000      60.00000     121.00000       0.00000  
topohru199             0.02936      90.00000      90.00000     121.00000       0.00000  
topohru200             0.03972      60.00000      60.00000     121.00000       0.00000  
topohru201             0.03112      60.00000      60.00000     121.00000       0.00000  
topohru202             0.01946      90.00000      90.00000     121.00000       0.00000  
topohru203             0.02332      90.00000      90.00000     121.00000       0.00000  
topohru204             0.04584      60.00000      60.00000     121.00000       0.00000  
topohru205             0.02890      90.00000      90.00000     121.00000       0.00000  
topohru206             0.03421      60.00000      60.00000     121.00000       0.00000  
topohru207             0.02758      90.00000      90.00000     121.00000       0.00000  
topohru208             0.00277     121.00000     121.00000     121.00000       0.00000  
topohru209             0.01961      90.00000      90.00000     121.00000       0.00000  
topohru210             0.02273      90.00000      90.00000     121.00000       0.00000  
topohru211             0.04386      60.00000      60.00000     121.00000       0.00000  
topohru212             0.05825      30.00000      30.00000     121.00000       0.00000  
topohru213             0.05386      30.00000      30.00000     121.00000       0.00000  
topohru214             0.02280      90.00000      90.00000     121.00000       0.00000  
topohru215             0.07337      30.00000      30.00000     121.00000       0.00000  
topohru216             0.07418      30.00000      30.00000     121.00000       0.00000  
topohru217             0.05999      30.00000      30.00000     121.00000       0.00000  
topohru218             0.05492      30.00000      30.00000     121.00000       0.00000  
topohru219             0.05233      30.00000      30.00000     121.00000       0.00000  
topohru220             0.03940      60.00000      60.00000     121.00000       0.00000  
topohru221             0.05228      30.00000      30.00000     121.00000       0.00000  
topohru222             0.06842      30.00000      30.00000     121.00000       0.00000  
topohru223             0.07878      30.00000      30.00000     121.00000       0.00000  
topohru224             0.06121      30.00000      30.00000     121.00000       0.00000  
topohru225             0.06179      30.00000      30.00000     121.00000       0.00000  
topohru226             0.04830      60.00000      60.00000     121.00000       0.00000  
topohru227             0.06460      30.00000      30.00000     121.00000       0.00000  
topohru228             0.03383      60.00000      60.00000     121.00000       0.00000  
topohru229             0.04583      60.00000      60.00000     121.00000       0.00000  
topohru230             0.05960      30.00000      30.00000     121.00000       0.00000  
topohru231             0.03840      60.00000      60.00000     121.00000       0.00000  
topohru232             0.01316      90.00000      90.00000     121.00000       0.00000  
topohru233             0.02748      90.00000      90.00000     121.00000       0.00000  
topohru234             0.03483      60.00000      60.00000     121.00000       0.00000  
topohru235             0.00964     121.00000     121.00000     121.00000       0.00000  
topohru236             0.01318      90.00000      90.00000     121.00000       0.00000  
topohru237             0.01766      90.00000      90.00000     121.00000       0.00000  
topohru238             0.05467      30.00000      30.00000     121.00000       0.00000  
topohru239             0.09096      10.00000      10.00000     121.00000       0.00000  
topohru240             0.03563      60.00000      60.00000     121.00000       0.00000  
topohru241             0.02746      90.00000      90.00000     121.00000       0.00000  
topohru242             0.02727      90.00000      90.00000     121.00000       0.00000  
topohru243             0.02710      90.00000      90.00000     121.00000       0.00000  
topohru244             0.05166      30.00000      30.00000     121.00000       0.00000  
topohru245             0.04512      60.00000      60.00000     121.00000       0.00000  
topohru246             0.07387      30.00000      30.00000     121.00000       0.00000  
topohru247             0.08767      10.00000      10.00000     121.00000       0.00000  
topohru248             0.07593      30.00000      30.00000     121.00000       0.00000  
topohru249             0.08662      10.00000      10.00000     121.00000       0.00000  
topohru250             0.05237      30.00000      30.00000     121.00000       0.00000  
topohru251             0.08053      10.00000      10.00000     121.00000       0.00000  
topohru252             0.07969      30.00000      30.00000     121.00000       0.00000  
topohru253             0.06509      30.00000      30.00000     121.00000       0.00000  
topohru254             0.06269      30.00000      30.00000     121.00000       0.00000  
topohru255             0.04297      60.00000      60.00000     121.00000       0.00000  
topohru256             0.04725      60.00000      60.00000     121.00000       0.00000  
topohru257             0.03158      60.00000      60.00000     121.00000       0.00000  
topohru258             0.03112      60.00000      60.00000     121.00000       0.00000  
topohru259             0.03755      60.00000      60.00000     121.00000       0.00000  
topohru260             0.05416      30.00000      30.00000     121.00000       0.00000  
topohru261             0.03053      60.00000      60.00000     121.00000       0.00000  
topohru262             0.02082      90.00000      90.00000     121.00000       0.00000  
topohru263             0.04386      60.00000      60.00000     121.00000       0.00000  
topohru264             0.03032      60.00000      60.00000     121.00000       0.00000  
topohru265             0.05319      30.00000      30.00000     121.00000       0.00000  
topohru266             0.07268      30.00000      30.00000     121.00000       0.00000  
topohru267             0.02523      90.00000      90.00000     121.00000       0.00000  
topohru268             0.04912      60.00000      60.00000     121.00000       0.00000  
topohru269             0.04461      60.00000      60.00000     121.00000       0.00000  
topohru270             0.05364      30.00000      30.00000     121.00000       0.00000  
topohru271             0.05736      30.00000      30.00000     121.00000       0.00000  
topohru272             0.02646      90.00000      90.00000     121.00000       0.00000  
topohru273             0.05635      30.00000      30.00000     121.00000       0.00000  
topohru274             0.05674      30.00000      30.00000     121.00000       0.00000  
topohru275             0.03039      60.00000      60.00000     121.00000       0.00000  
topohru276             0.06772      30.00000      30.00000     121.00000       0.00000  
topohru277             0.08019      10.00000      10.00000     121.00000       0.00000  
topohru278             0.04784      60.00000      60.00000     121.00000       0.00000  
topohru279             0.03342      60.00000      60.00000     121.00000       0.00000  
topohru280             0.06164      30.00000      30.00000     121.00000       0.00000  
topohru281             0.03512      60.00000      60.00000     121.00000       0.00000  
topohru282             0.02034      90.00000      90.00000     121.00000       0.00000  
topohru283             0.06656      30.00000      30.00000     121.00000       0.00000  
topohru284             0.06693      30.00000      30.00000     121.00000       0.00000  
topohru285             0.09132      10.00000      10.00000     121.00000       0.00000  
topohru286             0.04326      60.00000      60.00000     121.00000       0.00000  
topohru287             0.04021      60.00000      60.00000     121.00000       0.00000  
topohru288             0.06299      30.00000      30.00000     121.00000       0.00000  
topohru289             0.04967      60.00000      60.00000     121.00000       0.00000  
topohru290             0.06228      30.00000      30.00000     121.00000       0.00000  
topohru291             0.06300      30.00000      30.00000     121.00000       0.00000  
topohru292             0.04662      60.00000      60.00000     121.00000       0.00000  
topohru293             0.00984     121.00000     121.00000     121.00000       0.00000  
topohru294             0.07931      30.00000      30.00000     121.00000       0.00000  
topohru295             0.01452      90.00000      90.00000     121.00000       0.00000  
topohru296             0.03969      60.00000      60.00000     121.00000       0.00000  
topohru297             0.02539      90.00000      90.00000     121.00000       0.00000  
topohru298             0.05324      30.00000      30.00000     121.00000       0.00000  
topohru299             0.01606      90.00000      90.00000     121.00000       0.00000  
topohru300             0.03979      60.00000      60.00000     121.00000       0.00000  
topohru301             0.01590      90.00000      90.00000     121.00000       0.00000  
topohru302             0.01625      90.00000      90.00000     121.00000       0.00000  
topohru303             0.02445      90.00000      90.00000     121.00000       0.00000  
topohru304             0.03415      60.00000      60.00000     121.00000       0.00000  
topohru305             0.05870      30.00000      30.00000     121.00000       0.00000  
topohru306             0.06040      30.00000      30.00000     121.00000       0.00000  
topohru307             0.05607      30.00000      30.00000     121.00000       0.00000  
topohru308             0.09904      10.00000      10.00000     121.00000       0.00000  
topohru309             0.03799      60.00000      60.00000     121.00000       0.00000  
topohru310             0.08479      10.00000      10.00000     121.00000       0.00000  
topohru311             0.03987      60.00000      60.00000     121.00000       0.00000  
topohru312             0.12264      10.00000      10.00000     121.00000       0.00000  
topohru313             0.07034      30.00000      30.00000     121.00000       0.00000  
topohru314             0.02511      90.00000      90.00000     121.00000       0.00000  
topohru315             0.05542      30.00000      30.00000     121.00000       0.00000  
topohru316             0.05628      30.00000      30.00000     121.00000       0.00000  
topohru317             0.11674      10.00000      10.00000     121.00000       0.00000  
topohru318             0.09185      10.00000      10.00000     121.00000       0.00000  
topohru319             0.08056      10.00000      10.00000     121.00000       0.00000  
topohru320             0.09272      10.00000      10.00000     121.00000       0.00000  
topohru321             0.06840      30.00000      30.00000     121.00000       0.00000  
topohru322             0.01414      90.00000      90.00000     121.00000       0.00000  
topohru323             0.04507      60.00000      60.00000     121.00000       0.00000  
topohru324             0.04541      60.00000      60.00000     121.00000       0.00000  
topohru325             0.03117      60.00000      60.00000     121.00000       0.00000  
topohru326             0.04225      60.00000      60.00000     121.00000       0.00000  
topohru327             0.04595      60.00000      60.00000     121.00000       0.00000  
topohru328             0.03792      60.00000      60.00000     121.00000       0.00000  
topohru329             0.03626      60.00000      60.00000     121.00000       0.00000  
topohru330             0.04288      60.00000      60.00000     121.00000       0.00000  
topohru331             0.04576      60.00000      60.00000     121.00000       0.00000  
topohru332             0.03725      60.00000      60.00000     121.00000       0.00000  
topohru333             0.05832      30.00000      30.00000     121.00000       0.00000  
topohru334             0.03165      60.00000      60.00000     121.00000       0.00000  
topohru335             0.03523      60.00000      60.00000     121.00000       0.00000  