weather-sta.cli: written by SWAT+ editor v3.0.8 on 2025-07-29 21:28 for SWAT+ rev.61.0.1
name                           wgn                        pcp                        tmp                        slr                        hmd                        wnd                        pet          atmo_dep  
s66036n28125e             660n281e                        sim                        sim                        sim                        sim                        sim                       null              null  
s66036n28438e             660n284e                        sim                        sim                        sim                        sim                        sim                       null              null  
s66036n28750e             660n288e                        sim                        sim                        sim                        sim                        sim                       null              null  
s66036n29062e             660n291e                        sim                        sim                        sim                        sim                        sim                       null              null  
s66036n29375e             660n294e                        sim                        sim                        sim                        sim                        sim                       null              null  
s66036n29688e             660n297e                        sim                        sim                        sim                        sim                        sim                       null              null  
s66036n30000e             660n300e                        sim                        sim                        sim                        sim                        sim                       null              null  
s66349n28125e             663n281e                        sim                        sim                        sim                        sim                        sim                       null              null  
s66349n28438e             663n284e                        sim                        sim                        sim                        sim                        sim                       null              null  
s66349n28750e             663n288e                        sim                        sim                        sim                        sim                        sim                       null              null  
s66349n29062e             663n291e                        sim                        sim                        sim                        sim                        sim                       null              null  
s66349n29375e             663n294e                        sim                        sim                        sim                        sim                        sim                       null              null  
s66349n29688e             663n297e                        sim                        sim                        sim                        sim                        sim                       null              null  
s66349n30000e             663n300e                        sim                        sim                        sim                        sim                        sim                       null              null  
s66661n28125e             667n281e                        sim                        sim                        sim                        sim                        sim                       null              null  
s66661n28438e             667n284e                        sim                        sim                        sim                        sim                        sim                       null              null  
s66661n28750e             667n288e                        sim                        sim                        sim                        sim                        sim                       null              null  
s66661n29062e             667n291e                        sim                        sim                        sim                        sim                        sim                       null              null  
s66661n29375e             667n294e                        sim                        sim                        sim                        sim                        sim                       null              null  
s66661n29688e             667n297e                        sim                        sim                        sim                        sim                        sim                       null              null  
s66661n30000e             667n300e                        sim                        sim                        sim                        sim                        sim                       null              null  
s66973n28125e             670n281e                        sim                        sim                        sim                        sim                        sim                       null              null  
s66973n28438e             670n284e                        sim                        sim                        sim                        sim                        sim                       null              null  
s66973n28750e             670n288e                        sim                        sim                        sim                        sim                        sim                       null              null  
s66973n29062e             670n291e                        sim                        sim                        sim                        sim                        sim                       null              null  
s66973n29375e             670n294e                        sim                        sim                        sim                        sim                        sim                       null              null  
s66973n29688e             670n297e                        sim                        sim                        sim                        sim                        sim                       null              null  
s66973n30000e             670n300e                        sim                        sim                        sim                        sim                        sim                       null              null  
s67285n28125e             673n281e                        sim                        sim                        sim                        sim                        sim                       null              null  
s67285n28438e             673n284e                        sim                        sim                        sim                        sim                        sim                       null              null  
s67285n28750e             673n288e                        sim                        sim                        sim                        sim                        sim                       null              null  
s67285n29062e             673n291e                        sim                        sim                        sim                        sim                        sim                       null              null  
s67285n29375e             673n294e                        sim                        sim                        sim                        sim                        sim                       null              null  
s67285n29688e             673n297e                        sim                        sim                        sim                        sim                        sim                       null              null  
s67285n30000e             673n300e                        sim                        sim                        sim                        sim                        sim                       null              null  
