aqu_catunit.ele: written by SWAT+ editor v3.0.8 on 2025-10-29 11:31 for SWAT+ rev.61.0.1
      id  name                   obj_typ  obj_typ_no      bsn_frac      sub_frac      reg_frac  
       1  aqu010                     aqu           1       0.08397       0.00000       0.00000  
       2  aqu020                     aqu           2       0.01088       0.00000       0.00000  
       3  aqu030                     aqu           3       0.01769       0.00000       0.00000  
       4  aqu040                     aqu           4       0.01862       0.00000       0.00000  
       5  aqu050                     aqu           5       0.06728       0.00000       0.00000  
       6  aqu060                     aqu           6       0.01918       0.00000       0.00000  
       7  aqu070                     aqu           7       0.02903       0.00000       0.00000  
       8  aqu080                     aqu           8       0.01326       0.00000       0.00000  
       9  aqu090                     aqu           9       0.01407       0.00000       0.00000  
      10  aqu100                     aqu          10       0.01694       0.00000       0.00000  
      11  aqu110                     aqu          11       0.00522       0.00000       0.00000  
      12  aqu120                     aqu          12       0.04306       0.00000       0.00000  
      13  aqu130                     aqu          13       0.04560       0.00000       0.00000  
      14  aqu140                     aqu          14       0.03634       0.00000       0.00000  
      15  aqu150                     aqu          15       0.00687       0.00000       0.00000  
      16  aqu160                     aqu          16       0.01691       0.00000       0.00000  
      17  aqu170                     aqu          17       0.01527       0.00000       0.00000  
      18  aqu180                     aqu          18       0.01719       0.00000       0.00000  
      19  aqu190                     aqu          19       0.01014       0.00000       0.00000  
      20  aqu200                     aqu          20       0.02301       0.00000       0.00000  
      21  aqu210                     aqu          21       0.02081       0.00000       0.00000  
      22  aqu220                     aqu          22       0.01463       0.00000       0.00000  
      23  aqu230                     aqu          23       0.00397       0.00000       0.00000  
      24  aqu240                     aqu          24       0.01970       0.00000       0.00000  
      25  aqu250                     aqu          25       0.01008       0.00000       0.00000  
      26  aqu260                     aqu          26       0.04148       0.00000       0.00000  
      27  aqu270                     aqu          27       0.00013       0.00000       0.00000  
      28  aqu280                     aqu          28       0.00388       0.00000       0.00000  
      29  aqu290                     aqu          29       0.00084       0.00000       0.00000  
      30  aqu300                     aqu          30       0.01462       0.00000       0.00000  
      31  aqu310                     aqu          31       0.00287       0.00000       0.00000  
      32  aqu320                     aqu          32       0.01273       0.00000       0.00000  
      33  aqu330                     aqu          33       0.04108       0.00000       0.00000  
      34  aqu340                     aqu          34       0.01477       0.00000       0.00000  
      35  aqu350                     aqu          35       0.00490       0.00000       0.00000  
      36  aqu360                     aqu          36       0.03582       0.00000       0.00000  
      37  aqu370                     aqu          37       0.04821       0.00000       0.00000  
      38  aqu380                     aqu          38       0.03790       0.00000       0.00000  
      39  aqu390                     aqu          39       0.01875       0.00000       0.00000  
      40  aqu400                     aqu          40       0.01006       0.00000       0.00000  
      41  aqu410                     aqu          41       0.00004       0.00000       0.00000  
      42  aqu420                     aqu          42       0.03860       0.00000       0.00000  
      43  aqu430                     aqu          43       0.01723       0.00000       0.00000  
      44  aqu440                     aqu          44       0.01037       0.00000       0.00000  
      45  aqu450                     aqu          45       0.01916       0.00000       0.00000  
      46  aqu460                     aqu          46       0.01116       0.00000       0.00000  
      47  aqu470                     aqu          47       0.01496       0.00000       0.00000  
      48  aqu480                     aqu          48       0.00546       0.00000       0.00000  
      49  aqu490                     aqu          49       0.00872       0.00000       0.00000  
      50  aqu500                     aqu          50       0.00030       0.00000       0.00000  
      51  aqu510                     aqu          51       0.00627       0.00000       0.00000  
      52  aqu_deep051                aqu          52       1.00000       0.00000       0.00000  
