aquifer.aqu: written by SWAT+ editor v3.0.8 on 2025-10-29 11:31 for SWAT+ rev.61.0.1
      id  name                          init        gw_flo       dep_bot        dep_wt         no3_n         sol_p        carbon      flo_dist        bf_max      alpha_bf         revap       rchg_dp      spec_yld       hl_no3n       flo_min     revap_min  
       1  aqu010                    initaqu1       0.05000      10.00000       3.00000       0.00000       0.00000       0.50000      50.00000       1.00000       0.05000       0.02000       0.05000       0.05000      30.00000       3.00000       5.00000  
       2  aqu020                    initaqu1       0.05000      10.00000       3.00000       0.00000       0.00000       0.50000      50.00000       1.00000       0.05000       0.02000       0.05000       0.05000      30.00000       3.00000       5.00000  
       3  aqu030                    initaqu1       0.05000      10.00000       3.00000       0.00000       0.00000       0.50000      50.00000       1.00000       0.05000       0.02000       0.05000       0.05000      30.00000       3.00000       5.00000  
       4  aqu040                    initaqu1       0.05000      10.00000       3.00000       0.00000       0.00000       0.50000      50.00000       1.00000       0.05000       0.02000       0.05000       0.05000      30.00000       3.00000       5.00000  
       5  aqu050                    initaqu1       0.05000      10.00000       3.00000       0.00000       0.00000       0.50000      50.00000       1.00000       0.05000       0.02000       0.05000       0.05000      30.00000       3.00000       5.00000  
       6  aqu060                    initaqu1       0.05000      10.00000       3.00000       0.00000       0.00000       0.50000      50.00000       1.00000       0.05000       0.02000       0.05000       0.05000      30.00000       3.00000       5.00000  
       7  aqu070                    initaqu1       0.05000      10.00000       3.00000       0.00000       0.00000       0.50000      50.00000       1.00000       0.05000       0.02000       0.05000       0.05000      30.00000       3.00000       5.00000  
       8  aqu080                    initaqu1       0.05000      10.00000       3.00000       0.00000       0.00000       0.50000      50.00000       1.00000       0.05000       0.02000       0.05000       0.05000      30.00000       3.00000       5.00000  
       9  aqu090                    initaqu1       0.05000      10.00000       3.00000       0.00000       0.00000       0.50000      50.00000       1.00000       0.05000       0.02000       0.05000       0.05000      30.00000       3.00000       5.00000  
      10  aqu100                    initaqu1       0.05000      10.00000       3.00000       0.00000       0.00000       0.50000      50.00000       1.00000       0.05000       0.02000       0.05000       0.05000      30.00000       3.00000       5.00000  
      11  aqu110                    initaqu1       0.05000      10.00000       3.00000       0.00000       0.00000       0.50000      50.00000       1.00000       0.05000       0.02000       0.05000       0.05000      30.00000       3.00000       5.00000  
      12  aqu120                    initaqu1       0.05000      10.00000       3.00000       0.00000       0.00000       0.50000      50.00000       1.00000       0.05000       0.02000       0.05000       0.05000      30.00000       3.00000       5.00000  
      13  aqu130                    initaqu1       0.05000      10.00000       3.00000       0.00000       0.00000       0.50000      50.00000       1.00000       0.05000       0.02000       0.05000       0.05000      30.00000       3.00000       5.00000  
      14  aqu140                    initaqu1       0.05000      10.00000       3.00000       0.00000       0.00000       0.50000      50.00000       1.00000       0.05000       0.02000       0.05000       0.05000      30.00000       3.00000       5.00000  
      15  aqu150                    initaqu1       0.05000      10.00000       3.00000       0.00000       0.00000       0.50000      50.00000       1.00000       0.05000       0.02000       0.05000       0.05000      30.00000       3.00000       5.00000  
      16  aqu160                    initaqu1       0.05000      10.00000       3.00000       0.00000       0.00000       0.50000      50.00000       1.00000       0.05000       0.02000       0.05000       0.05000      30.00000       3.00000       5.00000  
      17  aqu170                    initaqu1       0.05000      10.00000       3.00000       0.00000       0.00000       0.50000      50.00000       1.00000       0.05000       0.02000       0.05000       0.05000      30.00000       3.00000       5.00000  
      18  aqu180                    initaqu1       0.05000      10.00000       3.00000       0.00000       0.00000       0.50000      50.00000       1.00000       0.05000       0.02000       0.05000       0.05000      30.00000       3.00000       5.00000  
      19  aqu190                    initaqu1       0.05000      10.00000       3.00000       0.00000       0.00000       0.50000      50.00000       1.00000       0.05000       0.02000       0.05000       0.05000      30.00000       3.00000       5.00000  
      20  aqu200                    initaqu1       0.05000      10.00000       3.00000       0.00000       0.00000       0.50000      50.00000       1.00000       0.05000       0.02000       0.05000       0.05000      30.00000       3.00000       5.00000  
      21  aqu210                    initaqu1       0.05000      10.00000       3.00000       0.00000       0.00000       0.50000      50.00000       1.00000       0.05000       0.02000       0.05000       0.05000      30.00000       3.00000       5.00000  
      22  aqu220                    initaqu1       0.05000      10.00000       3.00000       0.00000       0.00000       0.50000      50.00000       1.00000       0.05000       0.02000       0.05000       0.05000      30.00000       3.00000       5.00000  
      23  aqu230                    initaqu1       0.05000      10.00000       3.00000       0.00000       0.00000       0.50000      50.00000       1.00000       0.05000       0.02000       0.05000       0.05000      30.00000       3.00000       5.00000  
      24  aqu240                    initaqu1       0.05000      10.00000       3.00000       0.00000       0.00000       0.50000      50.00000       1.00000       0.05000       0.02000       0.05000       0.05000      30.00000       3.00000       5.00000  
      25  aqu250                    initaqu1       0.05000      10.00000       3.00000       0.00000       0.00000       0.50000      50.00000       1.00000       0.05000       0.02000       0.05000       0.05000      30.00000       3.00000       5.00000  
      26  aqu260                    initaqu1       0.05000      10.00000       3.00000       0.00000       0.00000       0.50000      50.00000       1.00000       0.05000       0.02000       0.05000       0.05000      30.00000       3.00000       5.00000  
      27  aqu270                    initaqu1       0.05000      10.00000       3.00000       0.00000       0.00000       0.50000      50.00000       1.00000       0.05000       0.02000       0.05000       0.05000      30.00000       3.00000       5.00000  
      28  aqu280                    initaqu1       0.05000      10.00000       3.00000       0.00000       0.00000       0.50000      50.00000       1.00000       0.05000       0.02000       0.05000       0.05000      30.00000       3.00000       5.00000  
      29  aqu290                    initaqu1       0.05000      10.00000       3.00000       0.00000       0.00000       0.50000      50.00000       1.00000       0.05000       0.02000       0.05000       0.05000      30.00000       3.00000       5.00000  
      30  aqu300                    initaqu1       0.05000      10.00000       3.00000       0.00000       0.00000       0.50000      50.00000       1.00000       0.05000       0.02000       0.05000       0.05000      30.00000       3.00000       5.00000  
      31  aqu310                    initaqu1       0.05000      10.00000       3.00000       0.00000       0.00000       0.50000      50.00000       1.00000       0.05000       0.02000       0.05000       0.05000      30.00000       3.00000       5.00000  
      32  aqu320                    initaqu1       0.05000      10.00000       3.00000       0.00000       0.00000       0.50000      50.00000       1.00000       0.05000       0.02000       0.05000       0.05000      30.00000       3.00000       5.00000  
      33  aqu330                    initaqu1       0.05000      10.00000       3.00000       0.00000       0.00000       0.50000      50.00000       1.00000       0.05000       0.02000       0.05000       0.05000      30.00000       3.00000       5.00000  
      34  aqu340                    initaqu1       0.05000      10.00000       3.00000       0.00000       0.00000       0.50000      50.00000       1.00000       0.05000       0.02000       0.05000       0.05000      30.00000       3.00000       5.00000  
      35  aqu350                    initaqu1       0.05000      10.00000       3.00000       0.00000       0.00000       0.50000      50.00000       1.00000       0.05000       0.02000       0.05000       0.05000      30.00000       3.00000       5.00000  
      36  aqu360                    initaqu1       0.05000      10.00000       3.00000       0.00000       0.00000       0.50000      50.00000       1.00000       0.05000       0.02000       0.05000       0.05000      30.00000       3.00000       5.00000  
      37  aqu370                    initaqu1       0.05000      10.00000       3.00000       0.00000       0.00000       0.50000      50.00000       1.00000       0.05000       0.02000       0.05000       0.05000      30.00000       3.00000       5.00000  
      38  aqu380                    initaqu1       0.05000      10.00000       3.00000       0.00000       0.00000       0.50000      50.00000       1.00000       0.05000       0.02000       0.05000       0.05000      30.00000       3.00000       5.00000  
      39  aqu390                    initaqu1       0.05000      10.00000       3.00000       0.00000       0.00000       0.50000      50.00000       1.00000       0.05000       0.02000       0.05000       0.05000      30.00000       3.00000       5.00000  
      40  aqu400                    initaqu1       0.05000      10.00000       3.00000       0.00000       0.00000       0.50000      50.00000       1.00000       0.05000       0.02000       0.05000       0.05000      30.00000       3.00000       5.00000  
      41  aqu410                    initaqu1       0.05000      10.00000       3.00000       0.00000       0.00000       0.50000      50.00000       1.00000       0.05000       0.02000       0.05000       0.05000      30.00000       3.00000       5.00000  
      42  aqu420                    initaqu1       0.05000      10.00000       3.00000       0.00000       0.00000       0.50000      50.00000       1.00000       0.05000       0.02000       0.05000       0.05000      30.00000       3.00000       5.00000  
      43  aqu430                    initaqu1       0.05000      10.00000       3.00000       0.00000       0.00000       0.50000      50.00000       1.00000       0.05000       0.02000       0.05000       0.05000      30.00000       3.00000       5.00000  
      44  aqu440                    initaqu1       0.05000      10.00000       3.00000       0.00000       0.00000       0.50000      50.00000       1.00000       0.05000       0.02000       0.05000       0.05000      30.00000       3.00000       5.00000  
      45  aqu450                    initaqu1       0.05000      10.00000       3.00000       0.00000       0.00000       0.50000      50.00000       1.00000       0.05000       0.02000       0.05000       0.05000      30.00000       3.00000       5.00000  
      46  aqu460                    initaqu1       0.05000      10.00000       3.00000       0.00000       0.00000       0.50000      50.00000       1.00000       0.05000       0.02000       0.05000       0.05000      30.00000       3.00000       5.00000  
      47  aqu470                    initaqu1       0.05000      10.00000       3.00000       0.00000       0.00000       0.50000      50.00000       1.00000       0.05000       0.02000       0.05000       0.05000      30.00000       3.00000       5.00000  
      48  aqu480                    initaqu1       0.05000      10.00000       3.00000       0.00000       0.00000       0.50000      50.00000       1.00000       0.05000       0.02000       0.05000       0.05000      30.00000       3.00000       5.00000  
      49  aqu490                    initaqu1       0.05000      10.00000       3.00000       0.00000       0.00000       0.50000      50.00000       1.00000       0.05000       0.02000       0.05000       0.05000      30.00000       3.00000       5.00000  
      50  aqu500                    initaqu1       0.05000      10.00000       3.00000       0.00000       0.00000       0.50000      50.00000       1.00000       0.05000       0.02000       0.05000       0.05000      30.00000       3.00000       5.00000  
      51  aqu510                    initaqu1       0.05000      10.00000       3.00000       0.00000       0.00000       0.50000      50.00000       1.00000       0.05000       0.02000       0.05000       0.05000      30.00000       3.00000       5.00000  
      52  aqu_deep051               initaqu1       0.00000     100.00000      20.00000       0.00000       0.00000       0.50000      50.00000       1.00000       0.01000       0.00000       0.00000       0.03000      30.00000       0.00000       0.00000  
