aquifer.con: written by SWAT+ editor v3.0.8 on 2025-07-29 21:28 for SWAT+ rev.61.0.1
      id  name                gis_id          area           lat           lon          elev       aqu               wst       cst      ovfl      rule   out_tot       obj_typ    obj_id       hyd_typ          frac  
       1  aqu010                  10   16679.42400      66.76247      29.08709     289.00000         1     s66661n29062e         0         0         0         2           sdc       185           tot       1.00000           aqu        52           rhg       1.00000  
       2  aqu020                  20    2160.20480      66.69302      28.54781     310.00000         2     s66661n28438e         0         0         0         2           sdc        37           tot       1.00000           aqu        52           rhg       1.00000  
       3  aqu030                  30    3513.62560      66.70073      28.67358     319.00000         3     s66661n28750e         0         0         0         2           sdc        51           tot       1.00000           aqu        52           rhg       1.00000  
       4  aqu040                  40    3698.94400      66.74242      29.23821     319.00000         4     s66661n29375e         0         0         0         2           sdc        92           tot       1.00000           aqu        52           rhg       1.00000  
       5  aqu050                  50   13363.09760      66.62105      28.57070     283.00000         5     s66661n28438e         0         0         0         2           sdc       287           tot       1.00000           aqu        52           rhg       1.00000  
       6  aqu060                  60    3810.35520      66.64142      29.40617     326.00000         6     s66661n29375e         0         0         0         2           sdc       109           tot       1.00000           aqu        52           rhg       1.00000  
       7  aqu070                  70    5765.47840      66.66600      29.30725     304.00000         7     s66661n29375e         0         0         0         2           sdc       179           tot       1.00000           aqu        52           rhg       1.00000  
       8  aqu080                  80    2633.98400      66.70519      29.27061     319.00000         8     s66661n29375e         0         0         0         2           sdc        99           tot       1.00000           aqu        52           rhg       1.00000  
       9  aqu090                  90    2793.83040      66.59856      29.44363     304.00000         9     s66661n29375e         0         0         0         2           sdc       103           tot       1.00000           aqu        52           rhg       1.00000  
      10  aqu100                 100    3363.86560      66.67696      29.15143     290.00000        10     s66661n29062e         0         0         0         2           sdc       224           tot       1.00000           aqu        52           rhg       1.00000  
      11  aqu110                 110    1037.10720      66.60740      29.32340     282.00000        11     s66661n29375e         0         0         0         2           sdc       116           tot       1.00000           aqu        52           rhg       1.00000  
      12  aqu120                 120    8552.34560      66.58305      28.79878     285.00000        12     s66661n28750e         0         0         0         2           sdc       390           tot       1.00000           aqu        52           rhg       1.00000  
      13  aqu130                 130    9056.53760      66.56858      29.28840     300.00000        13     s66661n29375e         0         0         0         2           sdc       357           tot       1.00000           aqu        52           rhg       1.00000  
      14  aqu140                 140    7218.58560      66.50572      28.56032     293.00000        14     s66661n28438e         0         0         0         2           sdc       337           tot       1.00000           aqu        52           rhg       1.00000  
      15  aqu150                 150    1364.32640      66.62716      29.20404     266.00000        15     s66661n29062e         0         0         0         2           sdc       220           tot       1.00000           aqu        52           rhg       1.00000  
      16  aqu160                 160    3359.20640      66.59415      28.65009     293.00000        16     s66661n28750e         0         0         0         2           sdc       258           tot       1.00000           aqu        52           rhg       1.00000  
      17  aqu170                 170    3032.83200      66.72888      28.88561     301.00000        17     s66661n28750e         0         0         0         2           sdc       204           tot       1.00000           aqu        52           rhg       1.00000  
      18  aqu180                 180    3414.04160      66.61101      29.12525     258.00000        18     s66661n29062e         0         0         0         2           sdc       323           tot       1.00000           aqu        52           rhg       1.00000  
      19  aqu190                 190    2014.13120      66.66132      29.00005     258.00000        19     s66661n29062e         0         0         0         2           sdc       266           tot       1.00000           aqu        52           rhg       1.00000  
      20  aqu200                 200    4569.88160      66.44377      29.57370     296.00000        20     s66349n29688e         0         0         0         2           sdc       347           tot       1.00000           aqu        52           rhg       1.00000  
      21  aqu210                 210    4134.11840      66.68131      28.84682     314.00000        21     s66661n28750e         0         0         0         2           sdc       282           tot       1.00000           aqu        52           rhg       1.00000  
      22  aqu220                 220    2905.24160      66.63385      28.98640     238.00000        22     s66661n29062e         0         0         0         2           sdc       316           tot       1.00000           aqu        52           rhg       1.00000  
      23  aqu230                 230     789.47840      66.54140      28.60621     261.00000        23     s66661n28750e         0         0         0         2           sdc       318           tot       1.00000           aqu        52           rhg       1.00000  
      24  aqu240                 240    3913.49760      66.60317      28.92879     260.00000        24     s66661n29062e         0         0         0         2           sdc       336           tot       1.00000           aqu        52           rhg       1.00000  
      25  aqu250                 250    2001.28000      66.55759      28.69347     255.00000        25     s66661n28750e         0         0         0         2           sdc       299           tot       1.00000           aqu        52           rhg       1.00000  
      26  aqu260                 260    8238.59200      66.49627      29.48762     309.00000        26     s66349n29375e         0         0         0         2           sdc       453           tot       1.00000           aqu        52           rhg       1.00000  
      27  aqu270                 270      25.13920      66.53950      28.64691     248.00000        27     s66661n28750e         0         0         0         2           sdc       330           tot       1.00000           aqu        52           rhg       1.00000  
      28  aqu280                 280     769.99680      66.52533      28.70625     262.00000        28     s66661n28750e         0         0         0         2           sdc       338           tot       1.00000           aqu        52           rhg       1.00000  
      29  aqu290                 290     167.01440      66.60494      29.01476     245.00000        29     s66661n29062e         0         0         0         2           sdc       342           tot       1.00000           aqu        52           rhg       1.00000  
      30  aqu300                 300    2904.70400      66.46741      28.72358     322.00000        30     s66349n28750e         0         0         0         2           sdc       367           tot       1.00000           aqu        52           rhg       1.00000  
      31  aqu310                 310     570.62400      66.58673      29.05601     243.00000        31     s66661n29062e         0         0         0         2           sdc       381           tot       1.00000           aqu        52           rhg       1.00000  
      32  aqu320                 320    2527.94880      66.45826      29.48310     284.00000        32     s66349n29375e         0         0         0         2           sdc       385           tot       1.00000           aqu        52           rhg       1.00000  
      33  aqu330                 330    8158.89920      66.36153      28.93351     254.00000        33     s66349n29062e         0         0         0         2           sdc       514           tot       1.00000           aqu        52           rhg       1.00000  
      34  aqu340                 340    2934.50240      66.49849      28.77273     250.00000        34     s66349n28750e         0         0         0         2           sdc       441           tot       1.00000           aqu        52           rhg       1.00000  
      35  aqu350                 350     973.79840      66.46873      29.35002     254.00000        35     s66349n29375e         0         0         0         2           sdc       440           tot       1.00000           aqu        52           rhg       1.00000  
      36  aqu360                 360    7113.95840      66.53699      29.12375     235.00000        36     s66661n29062e         0         0         0         2           sdc       497           tot       1.00000           aqu        52           rhg       1.00000  
      37  aqu370                 370    9576.83200      66.41385      28.87239     259.00000        37     s66349n28750e         0         0         0         2           sdc       545           tot       1.00000           aqu        52           rhg       1.00000  
      38  aqu380                 380    7527.24480      66.52185      28.97015     241.00000        38     s66661n29062e         0         0         0         2           sdc       475           tot       1.00000           aqu        52           rhg       1.00000  
      39  aqu390                 390    3724.69760      66.46489      28.88543     245.00000        39     s66349n28750e         0         0         0         2           sdc       495           tot       1.00000           aqu        52           rhg       1.00000  
      40  aqu400                 400    1998.33600      66.52393      29.33142     273.00000        40     s66661n29375e         0         0         0         2           sdc       407           tot       1.00000           aqu        52           rhg       1.00000  
      41  aqu410                 410       6.98880      66.50191      29.27569     240.00000        41     s66349n29375e         0         0         0         2           sdc       462           tot       1.00000           aqu        52           rhg       1.00000  
      42  aqu420                 420    7666.35520      66.44447      29.28443     264.00000        42     s66349n29375e         0         0         0         2           sdc       557           tot       1.00000           aqu        52           rhg       1.00000  
      43  aqu430                 430    3423.12960      66.32816      29.19158     244.00000        43     s66349n29062e         0         0         0         2           sdc       501           tot       1.00000           aqu        52           rhg       1.00000  
      44  aqu440                 440    2059.41760      66.43598      28.91329     252.00000        44     s66349n29062e         0         0         0         2           sdc       377           tot       1.00000           aqu        52           rhg       1.00000  
      45  aqu450                 450    3805.87520      66.45894      29.06208     229.00000        45     s66349n29062e         0         0         0         2           sdc       551           tot       1.00000           aqu        52           rhg       1.00000  
      46  aqu460                 460    2216.03840      66.46253      29.16672     226.00000        46     s66349n29062e         0         0         0         2           sdc       543           tot       1.00000           aqu        52           rhg       1.00000  
      47  aqu470                 470    2972.03200      66.37091      29.14648     237.00000        47     s66349n29062e         0         0         0         2           sdc       547           tot       1.00000           aqu        52           rhg       1.00000  
      48  aqu480                 480    1085.49120      66.39164      29.17425     286.00000        48     s66349n29062e         0         0         0         2           sdc       554           tot       1.00000           aqu        52           rhg       1.00000  
      49  aqu490                 490    1732.19840      66.42234      29.13421     219.00000        49     s66349n29062e         0         0         0         2           sdc       553           tot       1.00000           aqu        52           rhg       1.00000  
      50  aqu500                 500      58.93120      66.39697      29.21759     182.00000        50     s66349n29062e         0         0         0         2           sdc       558           tot       1.00000           aqu        52           rhg       1.00000  
      51  aqu510                 510    1245.05600      66.37973      29.28677     203.00000        51     s66349n29375e         0         0         0         2           sdc       561           tot       1.00000           aqu        52           rhg       1.00000  
      52  aqu_deep051             51  198629.22240      66.55946      29.02914     276.92359        52     s66661n29062e         0         0         0         0  
