chandeg.con: written by SWAT+ editor v3.0.8 on 2025-10-29 11:31 for SWAT+ rev.61.0.1
      id  name                gis_id          area           lat           lon          elev      lcha               wst       cst      ovfl      rule   out_tot       obj_typ    obj_id       hyd_typ          frac  
       1  cha001                   1     422.50240      66.79891      29.21289             0         1     s66719n29238e         0         0         0         1           sdc         4           tot       1.00000  
       2  cha002                   2     472.39680      66.81243      29.19589             0         2     s66719n29238e         0         0         0         1           sdc         4           tot       1.00000  
       3  cha003                   3     361.70240      66.80033      29.16768             0         3     s66719n29238e         0         0         0         1           sdc         9           tot       1.00000  
       4  cha004                   4    1135.10400      66.80558      29.16687             0         4     s66719n29238e         0         0         0         1           sdc         9           tot       1.00000  
       5  cha005                   5     820.94080      66.82804      29.12529             0         5     s66811n29019e         0         0         0         1           sdc        13           tot       1.00000  
       6  cha006                   6     600.37120      66.77671      29.14650             0         6     s66719n29238e         0         0         0         1           sdc        12           tot       1.00000  
       7  cha007                   7     311.27040      66.78640      29.17282             0         7     s66719n29238e         0         0         0         1           sdc        10           tot       1.00000  
       8  cha008                   8     355.71200      66.78232      29.16646             0         8     s66719n29238e         0         0         0         1           sdc        10           tot       1.00000  
       9  cha009                   9    1666.76480      66.80930      29.13114             0         9     s66811n29019e         0         0         0         1           sdc        14           tot       1.00000  
      10  cha010                  10     698.08640      66.78640      29.15190             0        10     s66719n29238e         0         0         0         1           sdc        12           tot       1.00000  
      11  cha011                  11     524.18560      66.83205      29.09392             0        11     s66811n29019e         0         0         0         1           sdc        13           tot       1.00000  
      12  cha012                  12    1457.35680      66.80073      29.11674             0        12     s66811n29019e         0         0         0         1           sdc        16           tot       1.00000  
      13  cha013                  13    1576.16640      66.82059      29.10806             0        13     s66811n29019e         0         0         0         1           sdc        14           tot       1.00000  
      14  cha014                  14    3481.88160      66.81422      29.10132             0        14     s66811n29019e         0         0         0         1           sdc        16           tot       1.00000  
      15  cha015                  15     432.58880      66.68848      28.73813             0        15     s66635n28778e         0         0         0         1           sdc        22           tot       1.00000  
      16  cha016                  16    6186.41920      66.80673      29.07027             0        16     s66811n29019e         0         0         0         1           sdc        34           tot       1.00000  
      17  cha017                  17     226.66240      66.78380      29.08908             0        17     s66811n29019e         0         0         0         1           sdc        34           tot       1.00000  
      18  cha018                  18     582.65600      66.69126      28.53244             0        18     s66637n28552e         0         0         0         1           sdc        28           tot       1.00000  
      19  cha019                  19     245.88800      66.68043      28.73847             0        19     s66635n28778e         0         0         0         1           sdc        22           tot       1.00000  
      20  cha020                  20     808.57600      66.81068      29.04273             0        20     s66811n29019e         0         0         0         1           sdc        35           tot       1.00000  
      21  cha021                  21     221.36320      66.68035      28.72651             0        21     s66635n28778e         0         0         0         1           sdc        23           tot       1.00000  
      22  cha022                  22     681.19040      66.68306      28.72760             0        22     s66635n28778e         0         0         0         1           sdc        23           tot       1.00000  
      23  cha023                  23    1196.95360      66.68578      28.71230             0        23     s66635n28778e         0         0         0         1           res        23           tot       1.00000  
      24  cha025                  25    1254.78400      66.69344      28.68729             0        24     s66635n28778e         0         0         0         1           sdc        31           tot       1.00000  
      25  cha026                  26     462.08000      66.70156      28.54378             0        25     s66637n28552e         0         0         0         1           sdc        28           tot       1.00000  
      26  cha027                  27     832.17920      66.75607      29.25139             0        26     s66719n29238e         0         0         0         1           sdc        55           tot       1.00000  
      27  cha028                  28     721.48480      66.71933      28.62527             0        27     s66637n28552e         0         0         0         1           sdc        53           tot       1.00000  
      28  cha029                  29    1384.75520      66.69451      28.56727             0        28     s66637n28552e         0         0         0         1           sdc        40           tot       1.00000  
      29  cha030                  30     279.47520      66.69566      28.68480             0        29     s66635n28778e         0         0         0         1           sdc        31           tot       1.00000  
      30  cha031                  31     279.37280      66.66095      29.43375             0        30     s66626n29456e         0         0         0         1           sdc        37           tot       1.00000  
      31  cha032                  32    2006.75840      66.69787      28.65214             0        31     s66637n28552e         0         0         0         1           res        16           tot       1.00000  
      32  cha034                  34     325.04320      66.66424      29.43407             0        32     s66626n29456e         0         0         0         1           sdc        37           tot       1.00000  
      33  cha035                  35     749.64480      66.74686      29.26290             0        33     s66719n29238e         0         0         0         1           sdc        50           tot       1.00000  
      34  cha036                  36    6486.09280      66.79882      29.04939             0        34     s66811n29019e         0         0         0         1           sdc        35           tot       1.00000  
      35  cha037                  37    8732.49280      66.78354      29.04867             0        35     s66811n29019e         0         0         0         1           sdc        70           tot       1.00000  
      36  cha038                  38     480.25600      66.68765      28.57788             0        36     s66637n28552e         0         0         0         1           sdc        40           tot       1.00000  
      37  cha039                  39    1297.15200      66.65274      29.42545             0        37     s66626n29456e         0         0         0         1           res        97           tot       1.00000  
      38  cha041                  41    1626.36800      66.64515      29.40332             0        38     s66626n29456e         0         0         0         1           res        96           tot       1.00000  
      39  cha043                  43    1850.03520      66.64353      29.37174             0        39     s66626n29456e         0         0         0         1           sdc        88           tot       1.00000  
      40  cha044                  44    2157.10720      66.69489      28.59636             0        40     s66637n28552e         0         0         0         1           res        16           tot       1.00000  
      41  cha046                  46     533.12000      66.71237      28.60377             0        41     s66637n28552e         0         0         0         1           sdc        53           tot       1.00000  
      42  cha047                  47     454.75840      66.65449      28.71511             0        42     s66635n28778e         0         0         0         1           sdc        58           tot       1.00000  
      43  cha048                  48     257.79200      66.74286      29.24673             0        43     s66719n29238e         0         0         0         1           sdc        49           tot       1.00000  
      44  cha049                  49    1142.68160      66.69956      29.37372             0        44     s66626n29456e         0         0         0         1           sdc        72           tot       1.00000  
      45  cha050                  50    1144.26880      66.76359      29.00265             0        45     s66722n29011e         0         0         0         1           sdc        85           tot       1.00000  
      46  cha051                  51     225.12640      66.67351      28.68783             0        46     s66635n28778e         0         0         0         1           res        22           tot       1.00000  
      47  cha053                  53     686.97600      66.67884      28.65306             0        47     s66637n28552e         0         0         0         1           sdc        79           tot       1.00000  
      48  cha054                  54     206.02880      66.74220      29.23759             0        48     s66719n29238e         0         0         0         1           sdc        49           tot       1.00000  
      49  cha055                  55     478.13120      66.74460      29.23544             0        49     s66719n29238e         0         0         0         1           sdc        50           tot       1.00000  
      50  cha056                  56    1250.45760      66.74606      29.22831             0        50     s66719n29238e         0         0         0         1           sdc        55           tot       1.00000  
      51  cha057                  57     371.76320      66.64559      28.71431             0        51     s66635n28778e         0         0         0         1           sdc        58           tot       1.00000  
      52  cha058                  58     405.06880      66.71092      29.30061             0        52     s66719n29238e         0         0         0         1           sdc        67           tot       1.00000  
      53  cha059                  59    1267.91680      66.70469      28.61283             0        53     s66637n28552e         0         0         0         1           res        16           tot       1.00000  
      54  cha061                  61     450.25280      66.62293      29.44936             0        54     s66626n29456e         0         0         0         1           sdc        77           tot       1.00000  
      55  cha063                  63    2268.95360      66.74449      29.21218             0        55     s66719n29238e         0         0         0         1           sdc        66           tot       1.00000  
      56  cha065                  65    5717.73440      66.69312      28.61849             0        56     s66637n28552e         0         0         0         1           res        15           tot       1.00000  
      57  cha067                  67    5806.23360      66.68125      28.63067             0        57     s66637n28552e         0         0         0         1           sdc        79           tot       1.00000  
      58  cha068                  68    1027.22560      66.65017      28.68261             0        58     s66635n28778e         0         0         0         1           sdc        84           tot       1.00000  
      59  cha069                  69     318.46400      66.78073      29.01532             0        59     s66811n29019e         0         0         0         1           sdc        82           tot       1.00000  
      60  cha070                  70     231.21920      66.70480      29.28680             0        60     s66719n29238e         0         0         0         1           sdc        67           tot       1.00000  
      61  cha071                  71     281.60000      66.69251      29.35110             0        61     s66719n29238e         0         0         0         1           sdc        72           tot       1.00000  
      62  cha072                  72     486.91200      66.60890      29.46460             0        62     s66626n29456e         0         0         0         1           sdc        83           tot       1.00000  
      63  cha073                  73     342.47680      66.61261      29.46153             0        63     s66626n29456e         0         0         0         1           sdc        83           tot       1.00000  
      64  cha074                  74     298.70080      66.74431      29.19963             0        64     s66719n29238e         0         0         0         1           sdc        66           tot       1.00000  
      65  cha075                  75     220.49280      66.70791      29.27003             0        65     s66719n29238e         0         0         0         1           sdc        74           tot       1.00000  
      66  cha076                  76    2983.85920      66.73448      29.19948             0        66     s66719n29238e         0         0         0         1           sdc        92           tot       1.00000  
      67  cha077                  77     682.34240      66.70507      29.27286             0        67     s66719n29238e         0         0         0         1           sdc        74           tot       1.00000  
      68  cha078                  78     381.18400      66.64721      28.67716             0        68     s66635n28778e         0         0         0         1           sdc        84           tot       1.00000  
      69  cha079                  79     219.52000      66.76897      29.04818             0        69     s66811n29019e         0         0         0         1           sdc        70           tot       1.00000  
      70  cha080                  80    9051.28960      66.77120      29.03655             0        70     s66811n29019e         0         0         0         1           sdc        82           tot       1.00000  
      71  cha081                  81     220.64640      66.62196      29.42395             0        71     s66626n29456e         0         0         0         1           sdc        77           tot       1.00000  
      72  cha082                  82    2605.13280      66.66943      29.31377             0        72     s66719n29238e         0         0         0         1           sdc       141           tot       1.00000  
      73  cha083                  83     500.48000      66.59690      29.42367             0        73     s66626n29456e         0         0         0         1           sdc        94           tot       1.00000  
      74  cha084                  84    1167.15520      66.70101      29.25947             0        74     s66719n29238e         0         0         0         1           res        86           tot       1.00000  
      75  cha086                  86    1587.37920      66.69844      29.23565             0        75     s66719n29238e         0         0         0         1           sdc       103           tot       1.00000  
      76  cha087                  87     243.43040      66.64661      29.35199             0        76     s66626n29456e         0         0         0         1           sdc        88           tot       1.00000  
      77  cha088                  88    1046.96320      66.62157      29.39788             0        77     s66626n29456e         0         0         0         1           sdc       101           tot       1.00000  
      78  cha089                  89     441.19040      66.71506      29.21698             0        78     s66719n29238e         0         0         0         1           sdc       109           tot       1.00000  
      79  cha090                  90    6590.79680      66.67621      28.63040             0        79     s66637n28552e         0         0         0         1           res        14           tot       1.00000  
      80  cha092                  92    7137.74080      66.66670      28.62263             0        80     s66637n28552e         0         0         0         1           sdc       104           tot       1.00000  
      81  cha093                  93     219.34080      66.76894      29.02236             0        81     s66811n29019e         0         0         0         1           sdc        85           tot       1.00000  
      82  cha094                  94    9525.58080      66.77267      29.02230             0        82     s66811n29019e         0         0         0         1           sdc        86           tot       1.00000  
      83  cha095                  95    1319.34720      66.61141      29.40937             0        83     s66626n29456e         0         0         0         1           sdc       115           tot       1.00000  
      84  cha096                  96    1654.29760      66.65655      28.63562             0        84     s66637n28552e         0         0         0         1           sdc       104           tot       1.00000  
      85  cha097                  97    1376.71680      66.77165      29.01858             0        85     s66811n29019e         0         0         0         1           sdc        86           tot       1.00000  
      86  cha098                  98   10907.26400      66.76949      29.02564             0        86     s66811n29019e         0         0         0         1           res        55           tot       1.00000  
      87  cha100                 100   11136.64000      66.73988      29.06977             0        87     s66722n29011e         0         0         0         1           sdc       129           tot       1.00000  
      88  cha101                 101    2310.16960      66.63391      29.36073             0        88     s66626n29456e         0         0         0         1           sdc       101           tot       1.00000  
      89  cha102                 102     258.09920      66.72865      29.19515             0        89     s66719n29238e         0         0         0         1           sdc        92           tot       1.00000  
      90  cha103                 103     425.26720      66.59450      29.41152             0        90     s66626n29456e         0         0         0         1           sdc        94           tot       1.00000  
      91  cha104                 104     626.58560      66.66379      28.57347             0        91     s66637n28552e         0         0         0         1           sdc       119           tot       1.00000  
      92  cha105                 105    3285.22240      66.72248      29.19442             0        92     s66719n29238e         0         0         0         1           sdc       100           tot       1.00000  
      93  cha106                 106     992.56320      66.73754      29.08516             0        93     s66722n29011e         0         0         0         1           sdc       129           tot       1.00000  
      94  cha107                 107    1031.91040      66.60128      29.38635             0        94     s66626n29456e         0         0         0         1           sdc       107           tot       1.00000  
      95  cha108                 108     241.97120      66.69967      29.21832             0        95     s66719n29238e         0         0         0         1           sdc       103           tot       1.00000  
      96  cha109                 109     317.00480      66.70843      29.21856             0        96     s66719n29238e         0         0         0         1           sdc       106           tot       1.00000  
      97  cha110                 110     199.52640      66.64676      28.63190             0        97     s66637n28552e         0         0         0         1           res        12           tot       1.00000  
      98  cha112                 112     293.29920      66.65346      28.61833             0        98     s66637n28552e         0         0         0         1           sdc       110           tot       1.00000  
      99  cha113                 113     216.93440      66.71912      29.18813             0        99     s66719n29238e         0         0         0         1           sdc       100           tot       1.00000  
     100  cha114                 114    3698.94400      66.71084      29.19501             0       100     s66719n29238e         0         0         0         1           sdc       120           tot       1.00000  
     101  cha115                 115    3373.03040      66.62397      29.36948             0       101     s66626n29456e         0         0         0         1           res        95           tot       1.00000  
     102  cha117                 117    3492.50560      66.62062      29.36381             0       102     s66626n29456e         0         0         0         1           sdc       122           tot       1.00000  
     103  cha118                 118    1831.52640      66.70558      29.21232             0       103     s66719n29238e         0         0         0         1           sdc       106           tot       1.00000  
     104  cha119                 119    8855.52640      66.66056      28.60874             0       104     s66637n28552e         0         0         0         1           sdc       110           tot       1.00000  
     105  cha120                 120     319.87200      66.60521      29.36848             0       105     s66626n29456e         0         0         0         1           sdc       107           tot       1.00000  
     106  cha121                 121    2156.08320      66.70738      29.20668             0       106     s66719n29238e         0         0         0         1           sdc       109           tot       1.00000  
     107  cha122                 122    1358.74560      66.60539      29.37089             0       107     s66626n29456e         0         0         0         1           res        93           tot       1.00000  
     108  cha124                 124    1435.77600      66.60864      29.37253             0       108     s66626n29456e         0         0         0         1           sdc       115           tot       1.00000  
     109  cha125                 125    2633.98400      66.70501      29.20139             0       109     s66719n29238e         0         0         0         1           sdc       120           tot       1.00000  
     110  cha126                 126    9163.75040      66.65784      28.60891             0       110     s66637n28552e         0         0         0         1           res        13           tot       1.00000  
     111  cha128                 128    9205.91360      66.65578      28.60481             0       111     s66637n28552e         0         0         0         1           sdc       119           tot       1.00000  
     112  cha129                 129     585.16480      66.64600      28.80624             0       112     s66635n28778e         0         0         0         1           res        28           tot       1.00000  
     113  cha131                 131    1433.47200      66.62967      28.80903             0       113     s66635n28778e         0         0         0         1           sdc       176           tot       1.00000  
     114  cha132                 132     282.64960      66.62354      29.34818             0       114     s66626n29456e         0         0         0         1           sdc       122           tot       1.00000  
     115  cha133                 133    2762.11200      66.61126      29.36831             0       115     s66626n29456e         0         0         0         1           res        94           tot       1.00000  
     116  cha135                 135    2793.83040      66.61553      29.35609             0       116     s66626n29456e         0         0         0         1           sdc       130           tot       1.00000  
     117  cha136                 136     240.02560      66.63070      28.62235             0       117     s66637n28552e         0         0         0         1           sdc       125           tot       1.00000  
     118  cha137                 137     489.88160      66.65201      29.29712             0       118     s66629n29230e         0         0         0         1           sdc       138           tot       1.00000  
     119  cha138                 138   10192.30720      66.64828      28.59546             0       119     s66637n28552e         0         0         0         1           sdc       139           tot       1.00000  
     120  cha139                 139    6804.68480      66.70169      29.17189             0       120     s66719n29238e         0         0         0         1           sdc       150           tot       1.00000  
     121  cha140                 140     226.17600      66.63145      28.62637             0       121     s66637n28552e         0         0         0         1           sdc       125           tot       1.00000  
     122  cha141                 141    3810.35520      66.62005      29.35092             0       122     s66626n29456e         0         0         0         1           sdc       130           tot       1.00000  
     123  cha142                 142     796.16000      66.65080      28.52994             0       123     s66637n28552e         0         0         0         1           sdc       167           tot       1.00000  
     124  cha143                 143     884.71040      66.57244      29.42183             0       124     s66536n29447e         0         0         0         1           sdc       175           tot       1.00000  
     125  cha144                 144     648.47360      66.63702      28.60829             0       125     s66637n28552e         0         0         0         1           sdc       139           tot       1.00000  
     126  cha145                 145     475.49440      66.64098      29.29085             0       126     s66629n29230e         0         0         0         1           sdc       138           tot       1.00000  
     127  cha146                 146     210.94400      66.54486      29.41742             0       127     s66536n29447e         0         0         0         1           res        91           tot       1.00000  
     128  cha148                 148     840.80640      66.56355      29.37111             0       128     s66536n29447e         0         0         0         1           sdc       182           tot       1.00000  
     129  cha149                 149   12671.79520      66.72425      29.05808             0       129     s66722n29011e         0         0         0         1           sdc       152           tot       1.00000  
     130  cha150                 150    7523.40480      66.61725      29.30606             0       130     s66629n29230e         0         0         0         1           res        85           tot       1.00000  
     131  cha152                 152    7641.29280      66.63123      29.22939             0       131     s66629n29230e         0         0         0         1           sdc       201           tot       1.00000  
     132  cha153                 153     428.62080      66.71691      29.07017             0       132     s66722n29011e         0         0         0         1           sdc       152           tot       1.00000  
     133  cha154                 154     370.68800      66.65879      29.26571             0       133     s66629n29230e         0         0         0         1           sdc       146           tot       1.00000  
     134  cha155                 155     389.86240      66.70708      29.06989             0       134     s66722n29011e         0         0         0         1           sdc       159           tot       1.00000  
     135  cha156                 156     226.22720      66.68715      29.16952             0       135     s66719n29238e         0         0         0         1           res        65           tot       1.00000  
     136  cha158                 158     226.81600      66.69575      29.14979             0       136     s66719n29238e         0         0         0         1           sdc       156           tot       1.00000  
     137  cha159                 159     334.33600      66.70275      29.15222             0       137     s66719n29238e         0         0         0         1           sdc       150           tot       1.00000  