chandeg.con: written by SWAT+ editor v3.0.8 on 2025-07-29 21:28 for SWAT+ rev.61.0.1
      id  name                gis_id          area           lat           lon          elev      lcha               wst       cst      ovfl      rule   out_tot       obj_typ    obj_id       hyd_typ          frac  
       1  cha001                   1     422.50240      66.79891      29.21289             0         1     s66661n29062e         0         0         0         1           sdc         4           tot       1.00000  
       2  cha002                   2     472.39680      66.81243      29.19589             0         2     s66661n29062e         0         0         0         1           sdc         4           tot       1.00000  
       3  cha003                   3     361.70240      66.80033      29.16768             0         3     s66661n29062e         0         0         0         1           sdc         9           tot       1.00000  
       4  cha004                   4    1135.10400      66.80558      29.16687             0         4     s66661n29062e         0         0         0         1           sdc         9           tot       1.00000  
       5  cha005                   5     820.94080      66.82804      29.12529             0         5     s66973n29062e         0         0         0         1           sdc        13           tot       1.00000  
       6  cha006                   6     600.37120      66.77671      29.14650             0         6     s66661n29062e         0         0         0         1           sdc        12           tot       1.00000  
       7  cha007                   7     311.27040      66.78640      29.17282             0         7     s66661n29062e         0         0         0         1           sdc        10           tot       1.00000  
       8  cha008                   8     355.71200      66.78232      29.16646             0         8     s66661n29062e         0         0         0         1           sdc        10           tot       1.00000  
       9  cha009                   9    1666.76480      66.80930      29.13114             0         9     s66661n29062e         0         0         0         1           sdc        14           tot       1.00000  
      10  cha010                  10     698.08640      66.78640      29.15190             0        10     s66661n29062e         0         0         0         1           sdc        12           tot       1.00000  
      11  cha011                  11     524.18560      66.83205      29.09392             0        11     s66973n29062e         0         0         0         1           sdc        13           tot       1.00000  
      12  cha012                  12    1457.35680      66.80073      29.11674             0        12     s66661n29062e         0         0         0         1           sdc        16           tot       1.00000  
      13  cha013                  13    1576.16640      66.82059      29.10806             0        13     s66973n29062e         0         0         0         1           sdc        14           tot       1.00000  
      14  cha014                  14    3481.88160      66.81422      29.10132             0        14     s66661n29062e         0         0         0         1           sdc        16           tot       1.00000  
      15  cha015                  15     432.58880      66.68848      28.73813             0        15     s66661n28750e         0         0         0         1           sdc        22           tot       1.00000  
      16  cha016                  16    6186.41920      66.80673      29.07027             0        16     s66661n29062e         0         0         0         1           sdc        33           tot       1.00000  
      17  cha017                  17     226.66240      66.78380      29.08908             0        17     s66661n29062e         0         0         0         1           sdc        33           tot       1.00000  
      18  cha018                  18     582.65600      66.69126      28.53244             0        18     s66661n28438e         0         0         0         1           sdc        27           tot       1.00000  
      19  cha019                  19     245.88800      66.68043      28.73847             0        19     s66661n28750e         0         0         0         1           sdc        22           tot       1.00000  
      20  cha020                  20     808.57600      66.81068      29.04273             0        20     s66661n29062e         0         0         0         1           sdc        34           tot       1.00000  
      21  cha021                  21     221.36320      66.68035      28.72651             0        21     s66661n28750e         0         0         0         1           sdc        23           tot       1.00000  
      22  cha022                  22     681.19040      66.68306      28.72760             0        22     s66661n28750e         0         0         0         1           sdc        23           tot       1.00000  
      23  cha023                  23    1254.78400      66.68920      28.70502             0        23     s66661n28750e         0         0         0         1           sdc        30           tot       1.00000  
      24  cha024                  24     462.08000      66.70156      28.54378             0        24     s66661n28438e         0         0         0         1           sdc        27           tot       1.00000  
      25  cha025                  25     832.17920      66.75607      29.25139             0        25     s66661n29375e         0         0         0         1           sdc        52           tot       1.00000  
      26  cha026                  26     721.48480      66.71933      28.62527             0        26     s66661n28750e         0         0         0         1           sdc        49           tot       1.00000  
      27  cha027                  27    1384.75520      66.69451      28.56727             0        27     s66661n28438e         0         0         0         1           sdc        37           tot       1.00000  
      28  cha028                  28     279.47520      66.69566      28.68480             0        28     s66661n28750e         0         0         0         1           sdc        30           tot       1.00000  
      29  cha029                  29     279.37280      66.66095      29.43375             0        29     s66661n29375e         0         0         0         1           sdc        36           tot       1.00000  
      30  cha030                  30    2006.80960      66.69795      28.65178             0        30     s66661n28750e         0         0         0         1           sdc        51           tot       1.00000  
      31  cha031                  31     325.04320      66.66424      29.43407             0        31     s66661n29375e         0         0         0         1           sdc        36           tot       1.00000  
      32  cha032                  32     749.64480      66.74686      29.26290             0        32     s66661n29375e         0         0         0         1           sdc        46           tot       1.00000  
      33  cha033                  33    6486.09280      66.79882      29.04939             0        33     s66661n29062e         0         0         0         1           sdc        34           tot       1.00000  
      34  cha034                  34    8732.49280      66.78354      29.04867             0        34     s66661n29062e         0         0         0         1           sdc        66           tot       1.00000  
      35  cha035                  35     480.25600      66.68765      28.57788             0        35     s66661n28438e         0         0         0         1           sdc        37           tot       1.00000  
      36  cha036                  36    1850.03520      66.65161      29.39645             0        36     s66661n29375e         0         0         0         1           sdc        81           tot       1.00000  
      37  cha037                  37    2160.20480      66.69456      28.59772             0        37     s66661n28750e         0         0         0         1           sdc        53           tot       1.00000  
      38  cha038                  38     533.12000      66.71237      28.60377             0        38     s66661n28750e         0         0         0         1           sdc        49           tot       1.00000  
      39  cha039                  39     454.75840      66.65449      28.71511             0        39     s66661n28750e         0         0         0         1           sdc        54           tot       1.00000  
      40  cha040                  40     257.79200      66.74286      29.24673             0        40     s66661n29375e         0         0         0         1           sdc        45           tot       1.00000  
      41  cha041                  41    1142.68160      66.69956      29.37372             0        41     s66661n29375e         0         0         0         1           sdc        68           tot       1.00000  
      42  cha042                  42    1144.26880      66.76359      29.00265             0        42     s66661n29062e         0         0         0         1           sdc        79           tot       1.00000  
      43  cha043                  43     686.97600      66.67423      28.66124             0        43     s66661n28750e         0         0         0         1           sdc        74           tot       1.00000  
      44  cha044                  44     206.02880      66.74220      29.23759             0        44     s66661n29375e         0         0         0         1           sdc        45           tot       1.00000  
      45  cha045                  45     478.13120      66.74460      29.23544             0        45     s66661n29375e         0         0         0         1           sdc        46           tot       1.00000  
      46  cha046                  46    1250.45760      66.74606      29.22831             0        46     s66661n29375e         0         0         0         1           sdc        52           tot       1.00000  
      47  cha047                  47     371.76320      66.64559      28.71431             0        47     s66661n28750e         0         0         0         1           sdc        54           tot       1.00000  
      48  cha048                  48     405.06880      66.71092      29.30061             0        48     s66661n29375e         0         0         0         1           sdc        63           tot       1.00000  
      49  cha049                  49    1362.07360      66.70299      28.61585             0        49     s66661n28750e         0         0         0         1           sdc        51           tot       1.00000  
      50  cha050                  50     450.25280      66.62293      29.44936             0        50     s66661n29375e         0         0         0         1           sdc        72           tot       1.00000  
      51  cha051                  51    3513.62560      66.69976      28.61528             0        51     s66661n28750e         0         0         0         1           sdc        53           tot       1.00000  
      52  cha052                  52    2268.95360      66.74449      29.21218             0        52     s66661n29062e         0         0         0         1           sdc        62           tot       1.00000  
      53  cha053                  53    5806.23360      66.68815      28.62050             0        53     s66661n28750e         0         0         0         1           sdc        74           tot       1.00000  
      54  cha054                  54    1027.22560      66.65017      28.68261             0        54     s66661n28750e         0         0         0         1           sdc        78           tot       1.00000  
      55  cha055                  55     318.46400      66.78073      29.01532             0        55     s66661n29062e         0         0         0         1           sdc        76           tot       1.00000  
      56  cha056                  56     231.21920      66.70480      29.28680             0        56     s66661n29375e         0         0         0         1           sdc        63           tot       1.00000  
      57  cha057                  57     281.60000      66.69251      29.35110             0        57     s66661n29375e         0         0         0         1           sdc        68           tot       1.00000  
      58  cha058                  58     486.91200      66.60890      29.46460             0        58     s66661n29375e         0         0         0         1           sdc        77           tot       1.00000  
      59  cha059                  59     342.47680      66.61261      29.46153             0        59     s66661n29375e         0         0         0         1           sdc        77           tot       1.00000  
      60  cha060                  60     298.70080      66.74431      29.19963             0        60     s66661n29062e         0         0         0         1           sdc        62           tot       1.00000  
      61  cha061                  61     220.49280      66.70791      29.27003             0        61     s66661n29375e         0         0         0         1           sdc        70           tot       1.00000  
      62  cha062                  62    2983.85920      66.73448      29.19948             0        62     s66661n29062e         0         0         0         1           sdc        85           tot       1.00000  
      63  cha063                  63     682.34240      66.70507      29.27286             0        63     s66661n29375e         0         0         0         1           sdc        70           tot       1.00000  
      64  cha064                  64     381.18400      66.64721      28.67716             0        64     s66661n28750e         0         0         0         1           sdc        78           tot       1.00000  
      65  cha065                  65     219.52000      66.76897      29.04818             0        65     s66661n29062e         0         0         0         1           sdc        66           tot       1.00000  
      66  cha066                  66    9051.28960      66.77120      29.03655             0        66     s66661n29062e         0         0         0         1           sdc        76           tot       1.00000  
      67  cha067                  67     220.64640      66.62196      29.42395             0        67     s66661n29375e         0         0         0         1           sdc        72           tot       1.00000  
      68  cha068                  68    2605.13280      66.66943      29.31377             0        68     s66661n29375e         0         0         0         1           sdc       125           tot       1.00000  
      69  cha069                  69     500.48000      66.59690      29.42367             0        69     s66661n29375e         0         0         0         1           sdc        87           tot       1.00000  
      70  cha070                  70    1587.37920      66.70454      29.23998             0        70     s66661n29375e         0         0         0         1           sdc        94           tot       1.00000  
      71  cha071                  71     243.43040      66.64661      29.35199             0        71     s66661n29375e         0         0         0         1           sdc        81           tot       1.00000  
      72  cha072                  72    1046.96320      66.62157      29.39788             0        72     s66661n29375e         0         0         0         1           sdc        93           tot       1.00000  
      73  cha073                  73     441.19040      66.71506      29.21698             0        73     s66661n29062e         0         0         0         1           sdc        99           tot       1.00000  
      74  cha074                  74    7137.74080      66.67000      28.61967             0        74     s66661n28750e         0         0         0         1           sdc        95           tot       1.00000  
      75  cha075                  75     219.34080      66.76894      29.02236             0        75     s66661n29062e         0         0         0         1           sdc        79           tot       1.00000  
      76  cha076                  76    9525.58080      66.77267      29.02230             0        76     s66661n29062e         0         0         0         1           sdc        80           tot       1.00000  
      77  cha077                  77    1319.34720      66.61141      29.40937             0        77     s66661n29375e         0         0         0         1           sdc       103           tot       1.00000  
      78  cha078                  78    1654.29760      66.65655      28.63562             0        78     s66661n28750e         0         0         0         1           sdc        95           tot       1.00000  
      79  cha079                  79    1376.71680      66.77165      29.01858             0        79     s66661n29062e         0         0         0         1           sdc        80           tot       1.00000  
      80  cha080                  80   11136.64000      66.75226      29.04061             0        80     s66661n29062e         0         0         0         1           sdc       115           tot       1.00000  
      81  cha081                  81    2310.16960      66.63391      29.36073             0        81     s66661n29375e         0         0         0         1           sdc        93           tot       1.00000  
      82  cha082                  82     258.09920      66.72865      29.19515             0        82     s66661n29062e         0         0         0         1           sdc        85           tot       1.00000  
      83  cha083                  83     425.26720      66.59450      29.41152             0        83     s66661n29375e         0         0         0         1           sdc        87           tot       1.00000  
      84  cha084                  84     626.58560      66.66379      28.57347             0        84     s66661n28438e         0         0         0         1           sdc       106           tot       1.00000  
      85  cha085                  85    3285.22240      66.72248      29.19442             0        85     s66661n29062e         0         0         0         1           sdc        92           tot       1.00000  
      86  cha086                  86     992.56320      66.73754      29.08516             0        86     s66661n29062e         0         0         0         1           sdc       115           tot       1.00000  
      87  cha087                  87    1031.91040      66.60128      29.38635             0        87     s66661n29375e         0         0         0         1           sdc        98           tot       1.00000  
      88  cha088                  88     241.97120      66.69967      29.21832             0        88     s66661n29062e         0         0         0         1           sdc        94           tot       1.00000  
      89  cha089                  89     317.00480      66.70843      29.21856             0        89     s66661n29062e         0         0         0         1           sdc        97           tot       1.00000  
      90  cha090                  90     293.29920      66.65262      28.62034             0        90     s66661n28750e         0         0         0         1           sdc       100           tot       1.00000  
      91  cha091                  91     216.93440      66.71912      29.18813             0        91     s66661n29062e         0         0         0         1           sdc        92           tot       1.00000  
      92  cha092                  92    3698.94400      66.71084      29.19501             0        92     s66661n29062e         0         0         0         1           sdc       107           tot       1.00000  
      93  cha093                  93    3492.50560      66.62320      29.36134             0        93     s66661n29375e         0         0         0         1           sdc       109           tot       1.00000  
      94  cha094                  94    1831.52640      66.70558      29.21232             0        94     s66661n29062e         0         0         0         1           sdc        97           tot       1.00000  
      95  cha095                  95    8855.52640      66.66056      28.60874             0        95     s66661n28750e         0         0         0         1           sdc       100           tot       1.00000  
      96  cha096                  96     319.87200      66.60521      29.36848             0        96     s66661n29375e         0         0         0         1           sdc        98           tot       1.00000  
      97  cha097                  97    2156.08320      66.70738      29.20668             0        97     s66661n29062e         0         0         0         1           sdc        99           tot       1.00000  
      98  cha098                  98    1435.77600      66.60872      29.36954             0        98     s66661n29375e         0         0         0         1           sdc       103           tot       1.00000  
      99  cha099                  99    2633.98400      66.70501      29.20139             0        99     s66661n29062e         0         0         0         1           sdc       107           tot       1.00000  
     100  cha100                 100    9205.91360      66.65696      28.60343             0       100     s66661n28750e         0         0         0         1           sdc       106           tot       1.00000  
     101  cha101                 101    1433.47200      66.63266      28.79912             0       101     s66661n28750e         0         0         0         1           sdc       156           tot       1.00000  
     102  cha102                 102     282.64960      66.62354      29.34818             0       102     s66661n29375e         0         0         0         1           sdc       109           tot       1.00000  
     103  cha103                 103    2793.83040      66.61526      29.35932             0       103     s66661n29375e         0         0         0         1           sdc       116           tot       1.00000  
     104  cha104                 104     240.02560      66.63070      28.62235             0       104     s66661n28750e         0         0         0         1           sdc       112           tot       1.00000  
     105  cha105                 105     489.88160      66.65201      29.29712             0       105     s66661n29375e         0         0         0         1           sdc       122           tot       1.00000  
     106  cha106                 106   10192.30720      66.64828      28.59546             0       106     s66661n28750e         0         0         0         1           sdc       123           tot       1.00000  
     107  cha107                 107    6804.68480      66.70169      29.17189             0       107     s66661n29062e         0         0         0         1           sdc       133           tot       1.00000  
     108  cha108                 108     226.17600      66.63145      28.62637             0       108     s66661n28750e         0         0         0         1           sdc       112           tot       1.00000  
     109  cha109                 109    3810.35520      66.62005      29.35092             0       109     s66661n29375e         0         0         0         1           sdc       116           tot       1.00000  
     110  cha110                 110     796.16000      66.65080      28.52994             0       110     s66661n28438e         0         0         0         1           sdc       148           tot       1.00000  
     111  cha111                 111     884.71040      66.57244      29.42183             0       111     s66661n29375e         0         0         0         1           sdc       155           tot       1.00000  
     112  cha112                 112     648.47360      66.63702      28.60829             0       112     s66661n28750e         0         0         0         1           sdc       123           tot       1.00000  
     113  cha113                 113     475.49440      66.64098      29.29085             0       113     s66661n29375e         0         0         0         1           sdc       122           tot       1.00000  
     114  cha114                 114     840.80640      66.56134      29.38756             0       114     s66661n29375e         0         0         0         1           sdc       162           tot       1.00000  
     115  cha115                 115   12671.79520      66.72425      29.05808             0       115     s66661n29062e         0         0         0         1           sdc       135           tot       1.00000  
     116  cha116                 116    7641.29280      66.62728      29.28470             0       116     s66661n29375e         0         0         0         1           sdc       181           tot       1.00000  
     117  cha117                 117     428.62080      66.71691      29.07017             0       117     s66661n29062e         0         0         0         1           sdc       135           tot       1.00000  
     118  cha118                 118     370.68800      66.65879      29.26571             0       118     s66661n29375e         0         0         0         1           sdc       130           tot       1.00000  
     119  cha119                 119     389.86240      66.70708      29.06989             0       119     s66661n29062e         0         0         0         1           sdc       141           tot       1.00000  
     120  cha120                 120     226.81600      66.68878      29.16532             0       120     s66661n29062e         0         0         0         1           sdc       138           tot       1.00000  
     121  cha121                 121     334.33600      66.70275      29.15222             0       121     s66661n29062e         0         0         0         1           sdc       133           tot       1.00000  
     122  cha122                 122     978.45760      66.64841      29.27815             0       122     s66661n29375e         0         0         0         1           sdc       125           tot       1.00000  
     123  cha123                 123   11142.55360      66.64037      28.57541             0       123     s66661n28438e         0         0         0         1           sdc       148           tot       1.00000  
     124  cha124                 124     767.97440      66.49378      28.56165             0       124     s66349n28438e         0         0         0         1           sdc       154           tot       1.00000  
     125  cha125                 125    3605.60640      66.65076      29.27004             0       125     s66661n29375e         0         0         0         1           sdc       130           tot       1.00000  
     126  cha126                 126     220.64640      66.64692      29.26245             0       126     s66661n29375e         0         0         0         1           sdc       134           tot       1.00000  
     127  cha127                 127     686.15680      66.56648      29.39888             0       127     s66661n29375e         0         0         0         1           sdc       155           tot       1.00000  
     128  cha128                 128     548.71040      66.66021      29.24176             0       128     s66661n29375e         0         0         0         1           sdc       149           tot       1.00000  
     129  cha129                 129     263.83360      66.61293      28.68080             0       129     s66661n28750e         0         0         0         1           sdc       143           tot       1.00000  
     130  cha130                 130    4025.52320      66.65096      29.26119             0       130     s66661n29375e         0         0         0         1           sdc       134           tot       1.00000  
     131  cha131                 131     272.69120      66.60963      28.68762             0       131     s66661n28750e         0         0         0         1           sdc       143           tot       1.00000  
     132  cha132                 132     777.62560      66.75268      28.83132             0       132     s66661n28750e         0         0         0         1           sdc       158           tot       1.00000  
     133  cha133                 133    7240.47360      66.69888      29.14644             0       133     s66661n29062e         0         0         0         1           sdc       138           tot       1.00000  
     134  cha134                 134    4342.63040      66.65235      29.24394             0       134     s66661n29375e         0         0         0         1           sdc       149           tot       1.00000  
     135  cha135                 135   13167.59040      66.71347      29.05337             0       135     s66661n29062e         0         0         0         1           sdc       141           tot       1.00000  
     136  cha136                 136     707.04640      66.71837      29.00188             0       136     s66661n29062e         0         0         0         1           sdc       172           tot       1.00000  
     137  cha137                 137     547.68640      66.63045      28.48819             0       137     s66661n28438e         0         0         0         1           sdc       169           tot       1.00000  
     138  cha138                 138    8092.64640      66.68383      29.14387             0       138     s66661n29062e         0         0         0         1           sdc       168           tot       1.00000  