filterstrip.str: written by SWAT+ editor v3.0.8 on 2025-10-29 11:31 for SWAT+ rev.61.0.1
name                  flag       fld_vfs       con_vfs         cha_q  description
field_border             0       0.10000       0.00300       0.20000  Field_border
high_engineered          0       0.10000       0.00100       0.05000  Highly_engineered_low_channelized
