grassedww.str: written by SWAT+ editor v3.0.8 on 2025-10-29 11:31 for SWAT+ rev.61.0.1
name                  flag          mann        sed_co            dp            wd           len           slp  description
grwway_high              0       0.05000       0.02000       1.00000       4.00000       0.50000       0.10000  Slope_>8
grwway_med               0       0.05000       0.02000       0.75000       3.00000       0.75000       0.03500  Slope_2-5
grwway_low               0       0.05000       0.02000       0.50000       2.00000       1.00000       0.01000  Slope_0-2
