hmd.cli: Relative humidity file names - file written by SWAT+ editor 2025-10-29 11:29:11.916836
filename
r12.hmd
r13.hmd
r14.hmd
r15.hmd
r16.hmd
r18.hmd
r19.hmd
r2.hmd
r20.hmd
r21.hmd
r22.hmd
r25.hmd
r26.hmd
r27.hmd
r28.hmd
r29.hmd
r32.hmd
r33.hmd
r8.hmd
r9.hmd
