hru-data.hru: written by SWAT+ editor v3.0.8 on 2025-10-29 11:31 for SWAT+ rev.61.0.1
      id  name                          topo             hydro              soil            lu_mgt   soil_plant_init         surf_stor              snow             field  
       1  hru001                  topohru001            hyd001                MR          frst_lum        soilplant1              null           snow001              null  
       2  hru002                  topohru002            hyd002              SRHK          frst_lum        soilplant1              null           snow001              null  
       3  hru003                  topohru003            hyd003                KA          frst_lum        soilplant1              null           snow001              null  
       4  hru004                  topohru004            hyd004              SRHK          frst_lum        soilplant1              null           snow001              null  
       5  hru005                  topohru005            hyd005              SRHK          frst_lum        soilplant1              null           snow001              null  
       6  hru006                  topohru006            hyd006                VE          wetw_lum        soilplant1            wet006           snow001              null  
       7  hru007                  topohru007            hyd007              SRHK          frst_lum        soilplant1              null           snow001              null  
       8  hru008                  topohru008            hyd008              SRHK          crdy_lum        soilplant1              null           snow001              null  
       9  hru009                  topohru009            hyd009              SRHK          frst_lum        soilplant1              null           snow001              null  
      10  hru010                  topohru010            hyd010              SRHK          crdy_lum        soilplant1              null           snow001              null  
      11  hru011                  topohru011            hyd011              SRHK          frst_lum        soilplant1              null           snow001              null  
      12  hru012                  topohru012            hyd012                VE          wetw_lum        soilplant1            wet012           snow001              null  
      13  hru013                  topohru013            hyd013              SRHK          frst_lum        soilplant1              null           snow001              null  
      14  hru014                  topohru014            hyd014                MR          frst_lum        soilplant1              null           snow001              null  
      15  hru015                  topohru015            hyd015                VE          wetw_lum        soilplant1            wet015           snow001              null  
      16  hru016                  topohru016            hyd016                HM          frst_lum        soilplant1              null           snow001              null  
      17  hru017                  topohru017            hyd017              SRHK          frst_lum        soilplant1              null           snow001              null  
      18  hru018                  topohru018            hyd018              SRHK          crdy_lum        soilplant1              null           snow001              null  
      19  hru019                  topohru019            hyd019              SRHK          frst_lum        soilplant1              null           snow001              null  
      20  hru020                  topohru020            hyd020              SRHK          frst_lum        soilplant1              null           snow001              null  
      21  hru021                  topohru021            hyd021                MR          frst_lum        soilplant1              null           snow001              null  
      22  hru022                  topohru022            hyd022                VE          wetw_lum        soilplant1            wet022           snow001              null  
      23  hru023                  topohru023            hyd023                VE          wetw_lum        soilplant1            wet023           snow001              null  
      24  hru024                  topohru024            hyd024                TU          crdy_lum        soilplant1              null           snow001              null  
      25  hru025                  topohru025            hyd025                TU          wetl_lum        soilplant1            wet025           snow001              null  
      26  hru026                  topohru026            hyd026                VE          wetw_lum        soilplant1            wet026           snow001              null  
      27  hru027                  topohru027            hyd027                HM          frst_lum        soilplant1              null           snow001              null  
      28  hru028                  topohru028            hyd028                HM          wetl_lum        soilplant1            wet028           snow001              null  
      29  hru029                  topohru029            hyd029                MR          frst_lum        soilplant1              null           snow001              null  
      30  hru030                  topohru030            hyd030                MR          frst_lum        soilplant1              null           snow001              null  
      31  hru031                  topohru031            hyd031                HM          wetn_lum        soilplant1            wet031           snow001              null  
      32  hru032                  topohru032            hyd032                MR          frst_lum        soilplant1              null           snow001              null  
      33  hru033                  topohru033            hyd033                MR          frst_lum        soilplant1              null           snow001              null  
      34  hru034                  topohru034            hyd034                MR          frst_lum        soilplant1              null           snow001              null  
      35  hru035                  topohru035            hyd035                TU          wetl_lum        soilplant1            wet035           snow001              null  
      36  hru036                  topohru036            hyd036                TU          frst_lum        soilplant1              null           snow001              null  
      37  hru037                  topohru037            hyd037                MR          frst_lum        soilplant1              null           snow001              null  
      38  hru038                  topohru038            hyd038                TU          crdy_lum        soilplant1              null           snow001              null  
      39  hru039                  topohru039            hyd039                MR          frst_lum        soilplant1              null           snow001              null  
      40  hru040                  topohru040            hyd040                TU          wetl_lum        soilplant1            wet040           snow001              null  
      41  hru041                  topohru041            hyd041                TU          crdy_lum        soilplant1              null           snow001              null  
      42  hru042                  topohru042            hyd042                TU          crdy_lum        soilplant1              null           snow001              null  
      43  hru043                  topohru043            hyd043                MR          frst_lum        soilplant1              null           snow001              null  
      44  hru044                  topohru044            hyd044                MR          frst_lum        soilplant1              null           snow001              null  
      45  hru045                  topohru045            hyd045                MR          frst_lum        soilplant1              null           snow001              null  
      46  hru046                  topohru046            hyd046                MR          frst_lum        soilplant1              null           snow001              null  
      47  hru047                  topohru047            hyd047                MR          frst_lum        soilplant1              null           snow001              null  
      48  hru048                  topohru048            hyd048                MR          frst_lum        soilplant1              null           snow001              null  
      49  hru049                  topohru049            hyd049                TU          crdy_lum        soilplant1              null           snow001              null  
      50  hru050                  topohru050            hyd050                TU          crdy_lum        soilplant1              null           snow001              null  
      51  hru051                  topohru051            hyd051                MR          frst_lum        soilplant1              null           snow001              null  
      52  hru052                  topohru052            hyd052                TU          crdy_lum        soilplant1              null           snow001              null  
      53  hru053                  topohru053            hyd053                MR          frst_lum        soilplant1              null           snow001              null  
      54  hru054                  topohru054            hyd054                MR          crdy_lum        soilplant1              null           snow001              null  
      55  hru055                  topohru055            hyd055                MR          frst_lum        soilplant1              null           snow001              null  
      56  hru056                  topohru056            hyd056                MR          frst_lum        soilplant1              null           snow001              null  
      57  hru057                  topohru057            hyd057                MR          frst_lum        soilplant1              null           snow001              null  
      58  hru058                  topohru058            hyd058                MR          frst_lum        soilplant1              null           snow001              null  
      59  hru059                  topohru059            hyd059                MR          wetl_lum        soilplant1            wet059           snow001              null  
      60  hru060                  topohru060            hyd060                MR          wetl_lum        soilplant1            wet060           snow001              null  
      61  hru061                  topohru061            hyd061                KM          frst_lum        soilplant1              null           snow001              null  
      62  hru062                  topohru062            hyd062                MR          frst_lum        soilplant1              null           snow001              null  
      63  hru063                  topohru063            hyd063                MR          wetl_lum        soilplant1            wet063           snow001              null  
      64  hru064                  topohru064            hyd064                MR          frst_lum        soilplant1              null           snow001              null  
      65  hru065                  topohru065            hyd065              SRHK          frst_lum        soilplant1              null           snow001              null  
      66  hru066                  topohru066            hyd066              SRHK          frst_lum        soilplant1              null           snow001              null  
      67  hru067                  topohru067            hyd067                HM          frst_lum        soilplant1              null           snow001              null  
      68  hru068                  topohru068            hyd068              SRHK          frst_lum        soilplant1              null           snow001              null  
      69  hru069                  topohru069            hyd069              SRHK          frst_lum        soilplant1              null           snow001              null  
      70  hru070                  topohru070            hyd070              SRHK          frst_lum        soilplant1              null           snow001              null  
      71  hru071                  topohru071            hyd071              SRHK          frst_lum        soilplant1              null           snow001              null  
      72  hru072                  topohru072            hyd072              SRHK          crdy_lum        soilplant1              null           snow001              null  
      73  hru073                  topohru073            hyd073              SRHK          frst_lum        soilplant1              null           snow001              null  
      74  hru074                  topohru074            hyd074                TU          crdy_lum        soilplant1              null           snow001              null  
      75  hru075                  topohru075            hyd075                MR          frst_lum        soilplant1              null           snow001              null  
      76  hru076                  topohru076            hyd076                MR          frst_lum        soilplant1              null           snow001              null  
      77  hru077                  topohru077            hyd077                MR          frst_lum        soilplant1              null           snow001              null  
      78  hru078                  topohru078            hyd078                MR          crdy_lum        soilplant1              null           snow001              null  
      79  hru079                  topohru079            hyd079                MR          frst_lum        soilplant1              null           snow001              null  
      80  hru080                  topohru080            hyd080                HM          frst_lum        soilplant1              null           snow001              null  
      81  hru081                  topohru081            hyd081                KM          frst_lum        soilplant1              null           snow001              null  
      82  hru082                  topohru082            hyd082                MR          frst_lum        soilplant1              null           snow001              null  
      83  hru083                  topohru083            hyd083                KM          frst_lum        soilplant1              null           snow001              null  
      84  hru084                  topohru084            hyd084                MR          frst_lum        soilplant1              null           snow001              null  
      85  hru085                  topohru085            hyd085                KM          frst_lum        soilplant1              null           snow001              null  
      86  hru086                  topohru086            hyd086                MR          frst_lum        soilplant1              null           snow001              null  
      87  hru087                  topohru087            hyd087                KM          frst_lum        soilplant1              null           snow001              null  
      88  hru088                  topohru088            hyd088                MR          frst_lum        soilplant1              null           snow001              null  
      89  hru089                  topohru089            hyd089                VE          crdy_lum        soilplant1              null           snow001              null  
      90  hru090                  topohru090            hyd090                MR          frst_lum        soilplant1              null           snow001              null  
      91  hru091                  topohru091            hyd091                VE          wetw_lum        soilplant1            wet091           snow001              null  
      92  hru092                  topohru092            hyd092                MR          frst_lum        soilplant1              null           snow001              null  
      93  hru093                  topohru093            hyd093                MR          frst_lum        soilplant1              null           snow001              null  
      94  hru094                  topohru094            hyd094                KM          wetl_lum        soilplant1            wet094           snow001              null  
      95  hru095                  topohru095            hyd095                MR          frst_lum        soilplant1              null           snow001              null  
      96  hru096                  topohru096            hyd096                TU          frst_lum        soilplant1              null           snow001              null  
      97  hru097                  topohru097            hyd097                KM          frst_lum        soilplant1              null           snow001              null  
      98  hru098                  topohru098            hyd098                KM          wetl_lum        soilplant1            wet098           snow001              null  
      99  hru099                  topohru099            hyd099                MR          frst_lum        soilplant1              null           snow001              null  
     100  hru100                  topohru100            hyd100                TU          frst_lum        soilplant1              null           snow001              null  
     101  hru101                  topohru101            hyd101                VE          wetw_lum        soilplant1            wet101           snow001              null  
     102  hru102                  topohru102            hyd102                MR          frst_lum        soilplant1              null           snow001              null  
     103  hru103                  topohru103            hyd103                KM          frst_lum        soilplant1              null           snow001              null  
     104  hru104                  topohru104            hyd104                TU          frst_lum        soilplant1              null           snow001              null  
     105  hru105                  topohru105            hyd105                TU          frst_lum        soilplant1              null           snow001              null  
     106  hru106                  topohru106            hyd106                KM          crdy_lum        soilplant1              null           snow001              null  
     107  hru107                  topohru107            hyd107                MR          frst_lum        soilplant1              null           snow001              null  
     108  hru108                  topohru108            hyd108                KM          crdy_lum        soilplant1              null           snow001              null  
     109  hru109                  topohru109            hyd109                MR          frst_lum        soilplant1              null           snow001              null  
     110  hru110                  topohru110            hyd110                KM          frst_lum        soilplant1              null           snow001              null  
     111  hru111                  topohru111            hyd111                TU          crdy_lum        soilplant1              null           snow001              null  
     112  hru112                  topohru112            hyd112                MR          frst_lum        soilplant1              null           snow001              null  
     113  hru113                  topohru113            hyd113                MR          frst_lum        soilplant1              null           snow001              null  
     114  hru114                  topohru114            hyd114                KM          frst_lum        soilplant1              null           snow001              null  
     115  hru115                  topohru115            hyd115                MR          frst_lum        soilplant1              null           snow001              null  
     116  hru116                  topohru116            hyd116                MR          frst_lum        soilplant1              null           snow001              null  
     117  hru117                  topohru117            hyd117                MR          crdy_lum        soilplant1              null           snow001              null  
     118  hru118                  topohru118            hyd118                MR          frst_lum        soilplant1              null           snow001              null  
     119  hru119                  topohru119            hyd119                MR          crdy_lum        soilplant1              null           snow001              null  
     120  hru120                  topohru120            hyd120                KM          frst_lum        soilplant1              null           snow001              null  
     121  hru121                  topohru121            hyd121                MR          crdy_lum        soilplant1              null           snow001              null  
     122  hru122                  topohru122            hyd122                MR          frst_lum        soilplant1              null           snow001              null  
     123  hru123                  topohru123            hyd123                MR          frst_lum        soilplant1              null           snow001              null  
     124  hru124                  topohru124            hyd124                TU          frst_lum        soilplant1              null           snow001              null  
     125  hru125                  topohru125            hyd125                MR          frst_lum        soilplant1              null           snow001              null  
     126  hru126                  topohru126            hyd126                TU          frst_lum        soilplant1              null           snow001              null  
     127  hru127                  topohru127            hyd127                MR          frst_lum        soilplant1              null           snow001              null  
     128  hru128                  topohru128            hyd128                MR          wetl_lum        soilplant1            wet128           snow001              null  
     129  hru129                  topohru129            hyd129                TU          frst_lum        soilplant1              null           snow001              null  
     130  hru130                  topohru130            hyd130                MR          frst_lum        soilplant1              null           snow001              null  
     131  hru131                  topohru131            hyd131                MR          frst_lum        soilplant1              null           snow001              null  
     132  hru132                  topohru132            hyd132                MR          frst_lum        soilplant1              null           snow001              null  
     133  hru133                  topohru133            hyd133                KM          frst_lum        soilplant1              null           snow001              null  
     134  hru134                  topohru134            hyd134                MR          frst_lum        soilplant1              null           snow001              null  
     135  hru135                  topohru135            hyd135                MR          frst_lum        soilplant1              null           snow001              null  
     136  hru136                  topohru136            hyd136                MR          frst_lum        soilplant1              null           snow001              null  
     137  hru137                  topohru137            hyd137                MR          wetn_lum        soilplant1            wet137           snow001              null  
     138  hru138                  topohru138            hyd138                KM          frst_lum        soilplant1              null           snow001              null  
     139  hru139                  topohru139            hyd139                VE          wetw_lum        soilplant1            wet139           snow001              null  
     140  hru140                  topohru140            hyd140              SRHK          frst_lum        soilplant1              null           snow001              null  
     141  hru141                  topohru141            hyd141              SRHK          frst_lum        soilplant1              null           snow001              null  
     142  hru142                  topohru142            hyd142              SRHK          frst_lum        soilplant1              null           snow001              null  
     143  hru143                  topohru143            hyd143              SRHK          frst_lum        soilplant1              null           snow001              null  
     144  hru144                  topohru144            hyd144              SRHK          frst_lum        soilplant1              null           snow001              null  
     145  hru145                  topohru145            hyd145              SRHK          frst_lum        soilplant1              null           snow001              null  
     146  hru146                  topohru146            hyd146              SRHK          frst_lum        soilplant1              null           snow001              null  
     147  hru147                  topohru147            hyd147              SRHK          frst_lum        soilplant1              null           snow001              null  
     148  hru148                  topohru148            hyd148              SRHK          frst_lum        soilplant1              null           snow001              null  
     149  hru149                  topohru149            hyd149              SRHK          frst_lum        soilplant1              null           snow001              null  
     150  hru150                  topohru150            hyd150                TU          crdy_lum        soilplant1              null           snow001              null  
     151  hru151                  topohru151            hyd151              SRHK          frst_lum        soilplant1              null           snow001              null  
     152  hru152                  topohru152            hyd152              SRHK          frst_lum        soilplant1              null           snow001              null  
     153  hru153                  topohru153            hyd153              SRHK          frst_lum        soilplant1              null           snow001              null  
     154  hru154                  topohru154            hyd154              SRHK          frst_lum        soilplant1              null           snow001              null  
     155  hru155                  topohru155            hyd155              SRHK          frst_lum        soilplant1              null           snow001              null  
     156  hru156                  topohru156            hyd156                HM          crdy_lum        soilplant1              null           snow001              null  
     157  hru157                  topohru157            hyd157              SRHK          frst_lum        soilplant1              null           snow001              null  
     158  hru158                  topohru158            hyd158              SRHK          frst_lum        soilplant1              null           snow001              null  
     159  hru159                  topohru159            hyd159              SRHK          frst_lum        soilplant1              null           snow001              null  
     160  hru160                  topohru160            hyd160                KA          frst_lum        soilplant1              null           snow001              null  
     161  hru161                  topohru161            hyd161              MRHM          frst_lum        soilplant1              null           snow001              null  
     162  hru162                  topohru162            hyd162                MR          frst_lum        soilplant1              null           snow001              null  
     163  hru163                  topohru163            hyd163              MRHM          frst_lum        soilplant1              null           snow001              null  
     164  hru164                  topohru164            hyd164              SRHK          frst_lum        soilplant1              null           snow001              null  
     165  hru165                  topohru165            hyd165                MR          frst_lum        soilplant1              null           snow001              null  
     166  hru166                  topohru166            hyd166                MR          frst_lum        soilplant1              null           snow001              null  
     167  hru167                  topohru167            hyd167              SRHK          wetl_lum        soilplant1            wet167           snow001              null  
     168  hru168                  topohru168            hyd168                MR          frst_lum        soilplant1              null           snow001              null  
     169  hru169                  topohru169            hyd169                MR          frst_lum        soilplant1              null           snow001              null  
     170  hru170                  topohru170            hyd170                MR          frst_lum        soilplant1              null           snow001              null  