hru.con: written by SWAT+ editor v3.0.8 on 2025-07-29 21:28 for SWAT+ rev.61.0.1
      id  name                gis_id          area           lat           lon          elev       hru               wst       cst      ovfl      rule   out_tot  
       1  hru001                   1     524.18560      66.83460      29.07828     315.01226         1     s66973n29062e         0         0         0         0  
       2  hru002                   2     820.94080      66.82762      29.14718     320.21710         2     s66973n29062e         0         0         0         0  
       3  hru003                   3     808.57600      66.81760      29.03164     327.32680         3     s66973n29062e         0         0         0         0  
       4  hru004                   4     472.39680      66.81353      29.21031     338.79581         4     s66661n29062e         0         0         0         0  
       5  hru005                   5     231.04000      66.81913      29.11851     301.10881         5     s66973n29062e         0         0         0         0  
       6  hru006                   6    1247.18080      66.79508      29.09690     294.67441         6     s66661n29062e         0         0         0         0  
       7  hru007                   7     240.20480      66.80702      29.17222     313.46531         7     s66661n29062e         0         0         0         0  
       8  hru008                   8     238.95040      66.80535      29.12178     291.23730         8     s66661n29062e         0         0         0         0  
       9  hru009                   9     169.95840      66.80739      29.14167     297.52222         9     s66661n29062e         0         0         0         0  
      10  hru010                  10     158.89920      66.79530      29.13069     291.31787        10     s66661n29062e         0         0         0         0  
      11  hru011                  11     422.50240      66.78952      29.23901     374.28024        11     s66661n29375e         0         0         0         0  
      12  hru012                  12    1437.82400      66.77902      29.06139     295.70239        12     s66661n29062e         0         0         0         0  
      13  hru013                  13     361.70240      66.79234      29.19038     325.25586        13     s66661n29062e         0         0         0         0  
      14  hru014                  14     318.46400      66.78538      29.00748     317.54196        14     s66661n29062e         0         0         0         0  
      15  hru015                  15      73.01120      66.78066      29.09206     292.94039        15     s66661n29062e         0         0         0         0  
      16  hru016                  16     226.66240      66.75923      29.14109     308.53659        16     s66661n29062e         0         0         0         0  
      17  hru017                  17     311.27040      66.78144      29.20770     344.48244        17     s66661n29062e         0         0         0         0  
      18  hru018                  18      31.10400      66.78609      29.15655     296.02716        18     s66661n29062e         0         0         0         0  
      19  hru019                  19     600.37120      66.76534      29.16985     310.37293        19     s66661n29062e         0         0         0         0  
      20  hru020                  20     355.71200      66.77339      29.20088     334.37287        20     s66661n29062e         0         0         0         0  
      21  hru021                  21    1144.26880      66.75690      29.00539     320.85729        21     s66661n29062e         0         0         0         0  
      22  hru022                  22     155.82720      66.76676      29.03572     294.17102        22     s66661n29062e         0         0         0         0  
      23  hru023                  23      99.27680      66.75954      29.06284     290.41387        23     s66661n29062e         0         0         0         0  
      24  hru024                  24     234.34240      66.74411      29.07444     291.35154        24     s66661n29062e         0         0         0         0  
      25  hru025                  25      13.10720      66.76838      29.02551     291.02734        25     s66661n29062e         0         0         0         0  
      26  hru026                  26     219.34080      66.75315      29.04950     290.95542        26     s66661n29062e         0         0         0         0  
      27  hru027                  27     219.52000      66.75313      29.10956     300.82531        27     s66661n29062e         0         0         0         0  
      28  hru028                  28     992.56320      66.73201      29.11756     300.33434        28     s66661n29062e         0         0         0         0  
      29  hru029                  29     707.04640      66.72698      28.99583     296.01731        29     s66661n29062e         0         0         0         0  
      30  hru030                  30     542.59200      66.72767      29.04200     286.85794        30     s66661n29062e         0         0         0         0  
      31  hru031                  31     428.62080      66.71331      29.09545     290.49519        31     s66661n29062e         0         0         0         0  
      32  hru032                  32      67.17440      66.71362      29.06276     279.41616        32     s66661n29062e         0         0         0         0  
      33  hru033                  33    1113.08800      66.69215      28.99771     270.45764        33     s66661n29062e         0         0         0         0  
      34  hru034                  34     524.36480      66.70075      29.05575     281.92462        34     s66661n29062e         0         0         0         0  
      35  hru035                  35     389.86240      66.69850      29.09622     293.04308        35     s66661n29062e         0         0         0         0  
      36  hru036                  36      73.62560      66.70090      29.02139     271.53025        36     s66661n29062e         0         0         0         0  
      37  hru037                  37     703.84640      66.67580      29.06089     282.39434        37     s66661n29062e         0         0         0         0  
      38  hru038                  38     462.08000      66.70719      28.52462     352.72078        38     s66661n28438e         0         0         0         0  
      39  hru039                  39     340.01920      66.69601      28.56143     313.93841        39     s66661n28438e         0         0         0         0  
      40  hru040                  40     295.19360      66.69199      28.60290     297.14925        40     s66661n28750e         0         0         0         0  
      41  hru041                  41     582.65600      66.68988      28.51244     356.47847        41     s66661n28438e         0         0         0         0  
      42  hru042                  42     480.25600      66.68171      28.56950     307.28006        42     s66661n28438e         0         0         0         0  
      43  hru043                  43     721.48480      66.72518      28.63208     315.42994        43     s66661n28750e         0         0         0         0  
      44  hru044                  44     533.12000      66.71652      28.59090     308.00279        44     s66661n28438e         0         0         0         0  
      45  hru045                  45     107.46880      66.70555      28.63120     302.67842        45     s66661n28750e         0         0         0         0  
      46  hru046                  46     279.47520      66.69864      28.69135     323.50435        46     s66661n28750e         0         0         0         0  
      47  hru047                  47     472.55040      66.69487      28.65865     306.69327        47     s66661n28750e         0         0         0         0  
      48  hru048                  48     432.58880      66.69098      28.75383     358.06291        48     s66661n28750e         0         0         0         0  
      49  hru049                  49     352.23040      66.68799      28.71564     327.65448        49     s66661n28750e         0         0         0         0  
      50  hru050                  50     144.74240      66.69128      28.63438     299.30368        50     s66661n28750e         0         0         0         0  
      51  hru051                  51     245.88800      66.67441      28.76509     336.18480        51     s66661n28750e         0         0         0         0  
      52  hru052                  52       2.71360      66.68164      28.73074     318.76415        52     s66661n28750e         0         0         0         0  
      53  hru053                  53     221.36320      66.67056      28.73690     331.79588        53     s66661n28750e         0         0         0         0  
      54  hru054                  54     832.17920      66.76573      29.25071     362.35749        54     s66661n29375e         0         0         0         0  
      55  hru055                  55     749.64480      66.74550      29.28790     359.23123        55     s66661n29375e         0         0         0         0  
      56  hru056                  56     298.70080      66.74658      29.18758     319.72592        56     s66661n29062e         0         0         0         0  
      57  hru057                  57      22.68160      66.74492      29.23086     314.75169        57     s66661n29375e         0         0         0         0  
      58  hru058                  58     257.79200      66.73754      29.27857     352.86137        58     s66661n29375e         0         0         0         0  
      59  hru059                  59     186.31680      66.73754      29.23426     319.49753        59     s66661n29375e         0         0         0         0  
      60  hru060                  60      14.31040      66.74348      29.23792     319.48658        60     s66661n29375e         0         0         0         0  
      61  hru061                  61     416.20480      66.73131      29.22223     316.59694        61     s66661n29375e         0         0         0         0  
      62  hru062                  62     206.02880      66.73047      29.27717     362.62724        62     s66661n29375e         0         0         0         0  
      63  hru063                  63     258.09920      66.73343      29.17443     313.77723        63     s66661n29062e         0         0         0         0  
      64  hru064                  64     216.93440      66.72266      29.17104     308.78015        64     s66661n29062e         0         0         0         0  
      65  hru065                  65      43.26400      66.72212      29.19513     301.01006        65     s66661n29062e         0         0         0         0  
      66  hru066                  66     196.78720      66.71041      29.18510     295.81462        66     s66661n29062e         0         0         0         0  
      67  hru067                  67     132.40320      66.68547      28.63012     296.18349        67     s66661n28750e         0         0         0         0  
      68  hru068                  68     686.97600      66.67135      28.68369     312.47662        68     s66661n28750e         0         0         0         0  
      69  hru069                  69     626.58560      66.66654      28.55648     314.11436        69     s66661n28438e         0         0         0         0  
      70  hru070                  70     644.53120      66.66775      28.62904     295.84879        70     s66661n28750e         0         0         0         0  
      71  hru071                  71     796.16000      66.65787      28.51743     321.76563        71     s66661n28438e         0         0         0         0  
      72  hru072                  72     454.75840      66.65365      28.73200     328.54200        72     s66661n28750e         0         0         0         0  
      73  hru073                  73      63.48800      66.65804      28.61134     287.77056        73     s66661n28750e         0         0         0         0  
      74  hru074                  74     245.88800      66.65286      28.64956     305.46174        74     s66661n28750e         0         0         0         0  
      75  hru075                  75     359.80800      66.64973      28.58131     292.67584        75     s66661n28438e         0         0         0         0  
      76  hru076                  76      57.08800      66.65462      28.60900     286.45247        76     s66661n28750e         0         0         0         0  
      77  hru077                  77     293.29920      66.64215      28.64104     314.94780        77     s66661n28750e         0         0         0         0  
      78  hru078                  78     200.70400      66.65170      28.68961     314.71263        78     s66661n28750e         0         0         0         0  
      79  hru079                  79     381.18400      66.63786      28.69536     324.68240        79     s66661n28750e         0         0         0         0  
      80  hru080                  80     371.76320      66.63609      28.73768     322.90718        80     s66661n28750e         0         0         0         0  
      81  hru081                  81     304.46080      66.63738      28.51084     288.34911        81     s66661n28438e         0         0         0         0  
      82  hru082                  82     182.27200      66.63776      28.61713     294.82992        82     s66661n28750e         0         0         0         0  
      83  hru083                  83     301.77280      66.63461      28.58892     294.82669        83     s66661n28438e         0         0         0         0  
      84  hru084                  84      38.32320      66.63265      28.57310     287.56847        84     s66661n28438e         0         0         0         0  
      85  hru085                  85     226.17600      66.62971      28.65806     322.83905        85     s66661n28750e         0         0         0         0  
      86  hru086                  86     225.04960      66.62807      28.53136     282.86031        86     s66661n28438e         0         0         0         0  
      87  hru087                  87     547.68640      66.62696      28.46438     294.26063        87     s66661n28438e         0         0         0         0  
      88  hru088                  88     291.02080      66.62263      28.55985     286.45989        88     s66661n28438e         0         0         0         0  
      89  hru089                  89     263.42400      66.61961      28.58400     295.28105        89     s66661n28438e         0         0         0         0  
      90  hru090                  90     240.02560      66.62219      28.63563     302.20392        90     s66661n28750e         0         0         0         0  
      91  hru091                  91     792.26880      66.61114      28.46381     300.89098        91     s66661n28438e         0         0         0         0  
      92  hru092                  92     153.42080      66.61514      28.53725     280.84665        92     s66661n28438e         0         0         0         0  
      93  hru093                  93     478.02880      66.60087      28.50884     288.75564        93     s66661n28438e         0         0         0         0  
      94  hru094                  94      51.73760      66.60862      28.52362     278.17862        94     s66661n28438e         0         0         0         0  
      95  hru095                  95     351.30880      66.60306      28.55673     287.17656        95     s66661n28438e         0         0         0         0  
      96  hru096                  96     369.81760      66.59300      28.58123     289.88973        96     s66661n28438e         0         0         0         0  
      97  hru097                  97     736.23040      66.58330      28.51391     284.35578        97     s66661n28438e         0         0         0         0  
      98  hru098                  98     489.60000      66.57674      28.47917     287.59624        98     s66661n28438e         0         0         0         0  
      99  hru099                  99     190.23360      66.57758      28.57021     273.55995        99     s66661n28438e         0         0         0         0  
     100  hru100                 100     242.45760      66.56709      28.56544     273.78693       100     s66661n28438e         0         0         0         0  
     101  hru101                 101     401.84320      66.55990      28.47076     300.29993       101     s66661n28438e         0         0         0         0  
     102  hru102                 102     321.20320      66.55970      28.52291     268.50187       102     s66661n28438e         0         0         0         0  
     103  hru103                 103     190.89920      66.55314      28.56020     263.57275       103     s66661n28438e         0         0         0         0  
     104  hru104                 104       0.07680      66.56165      28.49927     264.00000       104     s66661n28438e         0         0         0         0  
     105  hru105                 105     228.40320      66.54866      28.49675     296.76575       105     s66661n28438e         0         0         0         0  
     106  hru106                 106     138.64960      66.54971      28.58191     262.41968       106     s66661n28438e         0         0         0         0  
     107  hru107                 107     292.07040      66.54478      28.54656     262.15225       107     s66661n28438e         0         0         0         0  
     108  hru108                 108     325.04320      66.67095      29.42449     391.19879       108     s66661n29375e         0         0         0         0  
     109  hru109                 109     279.37280      66.66192      29.40680     386.87226       109     s66661n29375e         0         0         0         0  
     110  hru110                 110     243.43040      66.65721      29.35973     382.18982       110     s66661n29375e         0         0         0         0  
     111  hru111                 111    1245.61920      66.64584      29.41845     334.31202       111     s66661n29375e         0         0         0         0  
     112  hru112                 112     216.70400      66.63584      29.35777     308.68541       112     s66661n29375e         0         0         0         0  
     113  hru113                 113     450.25280      66.62875      29.46635     327.29651       113     s66661n29375e         0         0         0         0  
     114  hru114                 114     282.64960      66.62803      29.33861     289.48483       114     s66661n29375e         0         0         0         0  
     115  hru115                 115     220.64640      66.62854      29.41913     331.76598       115     s66661n29375e         0         0         0         0  
     116  hru116                 116     376.06400      66.62224      29.39559     321.65412       116     s66661n29375e         0         0         0         0  
     117  hru117                 117     135.37280      66.61881      29.37044     282.70632       117     s66661n29375e         0         0         0         0  
     118  hru118                 118      35.20000      66.61613      29.35946     281.44364       118     s66661n29375e         0         0         0         0  
     119  hru119                 119    1142.68160      66.69282      29.38934     396.05446       119     s66661n29375e         0         0         0         0  
     120  hru120                 120     281.60000      66.69932      29.35516     398.83318       120     s66661n29375e         0         0         0         0  
     121  hru121                 121    1180.85120      66.67634      29.32170     337.29985       121     s66661n29375e         0         0         0         0  
     122  hru122                 122     370.68800      66.66862      29.26952     292.57348       122     s66661n29375e         0         0         0         0  
     123  hru123                 123     548.71040      66.66505      29.23767     288.74340       123     s66661n29375e         0         0         0         0  
     124  hru124                 124     489.88160      66.65476      29.32539     320.83868       124     s66661n29375e         0         0         0         0  
     125  hru125                 125     359.91040      66.65206      29.20541     279.04360       125     s66661n29062e         0         0         0         0  
     126  hru126                 126      49.22880      66.65040      29.26290     271.29173       126     s66661n29375e         0         0         0         0  
     127  hru127                 127     109.08160      66.64478      29.23206     268.51091       127     s66661n29375e         0         0         0         0  
     128  hru128                 128      96.46080      66.64522      29.25286     272.13615       128     s66661n29375e         0         0         0         0  
     129  hru129                 129      22.01600      66.64995      29.27382     271.60000       129     s66661n29375e         0         0         0         0  
     130  hru130                 130     475.49440      66.63629      29.30411     282.19646       130     s66661n29375e         0         0         0         0  
     131  hru131                 131      13.08160      66.64818      29.28367     274.88258       131     s66661n29375e         0         0         0         0  
     132  hru132                 132     220.64640      66.63306      29.27763     275.92899       132     s66661n29375e         0         0         0         0  
     133  hru133                 133     362.08640      66.62813      29.26221     270.81561       133     s66661n29375e         0         0         0         0  
     134  hru134                 134      21.17120      66.63521      29.23111     266.15961       134     s66661n29375e         0         0         0         0  
     135  hru135                 135      21.88800      66.63058      29.23358     265.39415       135     s66661n29375e         0         0         0         0  
     136  hru136                 136     405.06880      66.71528      29.33057     429.04474       136     s66661n29375e         0         0         0         0  
     137  hru137                 137     441.19040      66.71784      29.23597     316.42892       137     s66661n29375e         0         0         0         0  
     138  hru138                 138     220.49280      66.71538      29.29210     378.03123       138     s66661n29375e         0         0         0         0  
     139  hru139                 139     317.00480      66.70912      29.23861     301.26230       139     s66661n29375e         0         0         0         0  
     140  hru140                 140     684.54400      66.69377      29.26867     318.20849       140     s66661n29375e         0         0         0         0  
     141  hru141                 141      46.05440      66.70435      29.28187     341.47137       141     s66661n29375e         0         0         0         0  
     142  hru142                 142     231.21920      66.70135      29.31264     381.62976       142     s66661n29375e         0         0         0         0  
     143  hru143                 143       7.55200      66.70528      29.21156     291.78983       143     s66661n29062e         0         0         0         0  
     144  hru144                 144      36.71040      66.70274      29.20844     291.53208       144     s66661n29062e         0         0         0         0  
     145  hru145                 145       2.17600      66.70439      29.21522     291.49412       145     s66661n29062e         0         0         0         0  
     146  hru146                 146     241.97120      66.68726      29.23071     301.65182       146     s66661n29375e         0         0         0         0  
     147  hru147                 147     342.47680      66.61695      29.48474     327.50247       147     s66661n29375e         0         0         0         0  
     148  hru148                 148     489.95840      66.60913      29.43221     304.63060       148     s66661n29375e         0         0         0         0  
     149  hru149                 149      38.70720      66.61025      29.36501     281.54630       149     s66661n29375e         0         0         0         0  
     150  hru150                 150     486.91200      66.59916      29.49291     353.25705       150     s66661n29375e         0         0         0         0  
     151  hru151                 151      83.99360      66.60456      29.38416     289.55440       151     s66661n29375e         0         0         0         0  
     152  hru152                 152     106.16320      66.59899      29.39909     289.63299       152     s66661n29375e         0         0         0         0  
     153  hru153                 153     319.87200      66.58757      29.38857     296.77927       153     s66661n29375e         0         0         0         0  
     154  hru154                 154     500.48000      66.59328      29.44985     321.47223       154     s66661n29375e         0         0         0         0  
     155  hru155                 155     425.26720      66.58295      29.43143     322.60173       155     s66661n29375e         0         0         0         0  
     156  hru156                 156     334.33600      66.70965      29.14843     298.92917       156     s66661n29062e         0         0         0         0  
     157  hru157                 157     471.75680      66.69372      29.18839     289.63333       157     s66661n29062e         0         0         0         0  
     158  hru158                 158     101.45280      66.69655      29.14460     294.38128       158     s66661n29062e         0         0         0         0  
     159  hru159                 159     625.35680      66.68144      29.15692     288.86176       159     s66661n29062e         0         0         0         0  
     160  hru160                 160     226.81600      66.67697      29.20300     298.55497       160     s66661n29062e         0         0         0         0  
     161  hru161                 161     283.98080      66.67989      29.11669     290.04165       161     s66661n29062e         0         0         0         0  
     162  hru162                 162     291.48160      66.66721      29.10556     292.86826       162     s66661n29062e         0         0         0         0  
     163  hru163                 163       0.99840      66.67249      29.13037     281.38462       163     s66661n29062e         0         0         0         0  
     164  hru164                 164     522.98240      66.65534      29.14148     285.38416       164     s66661n29062e         0         0         0         0  
     165  hru165                 165      42.77760      66.66621      29.14383     286.57032       165     s66661n29062e         0         0         0         0  
     166  hru166                 166     239.46240      66.66420      29.17381     293.74856       166     s66661n29062e         0         0         0         0  
     167  hru167                 167     217.47200      66.64654      29.11739     285.69841       167     s66661n29062e         0         0         0         0  
     168  hru168                 168       4.99200      66.63984      29.14555     263.84615       168     s66661n29062e         0         0         0         0  
     169  hru169                 169    1037.10720      66.60740      29.32340     285.16072       169     s66661n29375e         0         0         0         0  
     170  hru170                 170    1433.47200      66.63536      28.81175     330.23684       170     s66661n28750e         0         0         0         0  
     171  hru171                 171     304.87040      66.63107      28.77732     315.42187       171     s66661n28750e         0         0         0         0  
     172  hru172                 172     242.04800      66.62165      28.76410     327.49117       172     s66661n28750e         0         0         0         0  
     173  hru173                 173       6.88640      66.61891      28.79678     301.83271       173     s66661n28750e         0         0         0         0  
     174  hru174                 174     379.59680      66.60407      28.79575     296.43748       174     s66661n28750e         0         0         0         0  
     175  hru175                 175     433.45920      66.60620      28.76241     321.50396       175     s66661n28750e         0         0         0         0  
     176  hru176                 176     981.93920      66.58737      28.85207     322.75467       176     s66661n28750e         0         0         0         0  
     177  hru177                 177     646.37440      66.59722      28.73625     318.17716       177     s66661n28750e         0         0         0         0  
     178  hru178                 178     233.98400      66.59474      28.82203     297.15613       178     s66661n28750e         0         0         0         0  
     179  hru179                 179     290.66240      66.58234      28.77892     280.82262       179     s66661n28750e         0         0         0         0  
     180  hru180                 180      33.61280      66.58453      28.80439     273.77609       180     s66661n28750e         0         0         0         0  
     181  hru181                 181     236.33920      66.57256      28.81668     273.09879       181     s66661n28750e         0         0         0         0  
     182  hru182                 182     896.58880      66.55985      28.76909     273.64786       182     s66661n28750e         0         0         0         0  