hru.con: written by SWAT+ editor v3.0.8 on 2025-10-29 11:31 for SWAT+ rev.61.0.1
      id  name                gis_id          area           lat           lon          elev       hru               wst       cst      ovfl      rule   out_tot  
       1  hru001                   1     524.18560      66.83460      29.07828     315.01226         1     s66811n29019e         0         0         0         0  
       2  hru002                   2     820.94080      66.82762      29.14718     320.21710         2     s66811n29019e         0         0         0         0  
       3  hru003                   3     808.57600      66.81760      29.03164     327.32680         3     s66811n29019e         0         0         0         0  
       4  hru004                   4     472.39680      66.81353      29.21031     338.79581         4     s66719n29238e         0         0         0         0  
       5  hru005                   5     231.04000      66.81913      29.11851     301.10881         5     s66811n29019e         0         0         0         0  
       6  hru006                   6    1247.18080      66.79508      29.09690     294.67441         6     s66811n29019e         0         0         0         0  
       7  hru007                   7     240.20480      66.80702      29.17222     313.46531         7     s66719n29238e         0         0         0         0  
       8  hru008                   8     238.95040      66.80535      29.12178     291.23730         8     s66811n29019e         0         0         0         0  
       9  hru009                   9     169.95840      66.80739      29.14167     297.52222         9     s66811n29019e         0         0         0         0  
      10  hru010                  10     158.89920      66.79530      29.13069     291.31787        10     s66811n29019e         0         0         0         0  
      11  hru011                  11     422.50240      66.78952      29.23901     374.28024        11     s66719n29238e         0         0         0         0  
      12  hru012                  12    1437.82400      66.77902      29.06139     295.70239        12     s66811n29019e         0         0         0         0  
      13  hru013                  13     361.70240      66.79234      29.19038     325.25586        13     s66719n29238e         0         0         0         0  
      14  hru014                  14     318.46400      66.78538      29.00748     317.54196        14     s66811n29019e         0         0         0         0  
      15  hru015                  15      73.01120      66.78066      29.09206     292.94039        15     s66811n29019e         0         0         0         0  
      16  hru016                  16     226.66240      66.75923      29.14109     308.53659        16     s66719n29238e         0         0         0         0  
      17  hru017                  17     311.27040      66.78144      29.20770     344.48244        17     s66719n29238e         0         0         0         0  
      18  hru018                  18      31.10400      66.78609      29.15655     296.02716        18     s66719n29238e         0         0         0         0  
      19  hru019                  19     600.37120      66.76534      29.16985     310.37293        19     s66719n29238e         0         0         0         0  
      20  hru020                  20     355.71200      66.77339      29.20088     334.37287        20     s66719n29238e         0         0         0         0  
      21  hru021                  21    1144.26880      66.75690      29.00539     320.85729        21     s66722n29011e         0         0         0         0  
      22  hru022                  22     155.82720      66.76676      29.03572     294.17102        22     s66811n29019e         0         0         0         0  
      23  hru023                  23      99.27680      66.75954      29.06284     290.41387        23     s66722n29011e         0         0         0         0  
      24  hru024                  24       4.96640      66.76956      29.02546     288.62371        24     s66811n29019e         0         0         0         0  
      25  hru025                  25      13.10720      66.76838      29.02551     291.02734        25     s66811n29019e         0         0         0         0  
      26  hru026                  26     219.34080      66.75315      29.04950     290.95542        26     s66722n29011e         0         0         0         0  
      27  hru027                  27     219.52000      66.75313      29.10956     300.82531        27     s66722n29011e         0         0         0         0  
      28  hru028                  28      55.29600      66.75397      29.06263     290.62315        28     s66722n29011e         0         0         0         0  
      29  hru029                  29     992.56320      66.73201      29.11756     300.33434        29     s66722n29011e         0         0         0         0  
      30  hru030                  30     362.70080      66.73556      28.98840     307.09246        30     s66722n29011e         0         0         0         0  
      31  hru031                  31     174.08000      66.74025      29.07958     291.66074        31     s66722n29011e         0         0         0         0  
      32  hru032                  32     542.59200      66.72767      29.04200     286.85794        32     s66722n29011e         0         0         0         0  
      33  hru033                  33      34.68800      66.72671      29.00712     292.37122        33     s66722n29011e         0         0         0         0  
      34  hru034                  34     309.65760      66.71695      29.00327     283.45346        34     s66722n29011e         0         0         0         0  
      35  hru035                  35     428.62080      66.71331      29.09545     290.49519        35     s66722n29011e         0         0         0         0  
      36  hru036                  36      67.17440      66.71362      29.06276     279.41616        36     s66722n29011e         0         0         0         0  
      37  hru037                  37    1113.08800      66.69215      28.99771     270.45764        37     s66722n29011e         0         0         0         0  
      38  hru038                  38     477.51680      66.70049      29.05832     282.93009        38     s66722n29011e         0         0         0         0  
      39  hru039                  39     389.86240      66.69850      29.09622     293.04308        39     s66722n29011e         0         0         0         0  
      40  hru040                  40      46.31040      66.70346      29.02961     271.69541        40     s66722n29011e         0         0         0         0  
      41  hru041                  41      73.62560      66.70090      29.02139     271.53025        41     s66722n29011e         0         0         0         0  
      42  hru042                  42       0.53760      66.70145      29.02789     270.00000        42     s66722n29011e         0         0         0         0  
      43  hru043                  43     703.84640      66.67580      29.06089     282.39434        43     s66722n29011e         0         0         0         0  
      44  hru044                  44     462.08000      66.70719      28.52462     352.72078        44     s66637n28552e         0         0         0         0  
      45  hru045                  45     340.01920      66.69601      28.56143     313.93841        45     s66637n28552e         0         0         0         0  
      46  hru046                  46     292.09600      66.69191      28.60283     297.15706        46     s66637n28552e         0         0         0         0  
      47  hru047                  47     582.65600      66.68988      28.51244     356.47847        47     s66637n28552e         0         0         0         0  
      48  hru048                  48       3.09760      66.69946      28.60943     296.41322        48     s66637n28552e         0         0         0         0  
      49  hru049                  49     480.25600      66.68171      28.56950     307.28006        49     s66637n28552e         0         0         0         0  
      50  hru050                  50     721.48480      66.72518      28.63208     315.42994        50     s66637n28552e         0         0         0         0  
      51  hru051                  51     533.12000      66.71652      28.59090     308.00279        51     s66637n28552e         0         0         0         0  
      52  hru052                  52      94.15680      66.70600      28.63389     303.40321        52     s66637n28552e         0         0         0         0  
      53  hru053                  53     279.47520      66.69864      28.69135     323.50435        53     s66635n28778e         0         0         0         0  
      54  hru054                  54     472.49920      66.69487      28.65865     306.69502        54     s66637n28552e         0         0         0         0  
      55  hru055                  55      13.31200      66.70238      28.61215     297.55192        55     s66637n28552e         0         0         0         0  
      56  hru056                  56     432.58880      66.69098      28.75383     358.06291        56     s66635n28778e         0         0         0         0  
      57  hru057                  57     294.40000      66.68828      28.71982     331.57574        57     s66635n28778e         0         0         0         0  
      58  hru058                  58     144.74240      66.69128      28.63438     299.30368        58     s66637n28552e         0         0         0         0  
      59  hru059                  59       0.05120      66.70064      28.62041     290.50000        59     s66637n28552e         0         0         0         0  
      60  hru060                  60      13.31200      66.69115      28.69134     306.13269        60     s66635n28778e         0         0         0         0  
      61  hru061                  61      44.51840      66.68513      28.69526     308.15871        61     s66635n28778e         0         0         0         0  
      62  hru062                  62     245.88800      66.67441      28.76509     336.18480        62     s66635n28778e         0         0         0         0  
      63  hru063                  63       2.71360      66.68164      28.73074     318.76415        63     s66635n28778e         0         0         0         0  
      64  hru064                  64     221.36320      66.67056      28.73690     331.79588        64     s66635n28778e         0         0         0         0  
      65  hru065                  65     832.17920      66.76573      29.25071     362.35749        65     s66719n29238e         0         0         0         0  
      66  hru066                  66     749.64480      66.74550      29.28790     359.23123        66     s66719n29238e         0         0         0         0  
      67  hru067                  67     298.70080      66.74658      29.18758     319.72592        67     s66719n29238e         0         0         0         0  
      68  hru068                  68      22.68160      66.74492      29.23086     314.75169        68     s66719n29238e         0         0         0         0  
      69  hru069                  69     257.79200      66.73754      29.27857     352.86137        69     s66719n29238e         0         0         0         0  
      70  hru070                  70     186.31680      66.73754      29.23426     319.49753        70     s66719n29238e         0         0         0         0  
      71  hru071                  71      14.31040      66.74348      29.23792     319.48658        71     s66719n29238e         0         0         0         0  
      72  hru072                  72     416.20480      66.73131      29.22223     316.59694        72     s66719n29238e         0         0         0         0  
      73  hru073                  73     206.02880      66.73047      29.27717     362.62724        73     s66719n29238e         0         0         0         0  
      74  hru074                  74     258.09920      66.73343      29.17443     313.77723        74     s66719n29238e         0         0         0         0  
      75  hru075                  75     216.93440      66.72266      29.17104     308.78015        75     s66719n29238e         0         0         0         0  
      76  hru076                  76      43.26400      66.72212      29.19513     301.01006        76     s66719n29238e         0         0         0         0  
      77  hru077                  77     196.78720      66.71041      29.18510     295.81462        77     s66719n29238e         0         0         0         0  
      78  hru078                  78       0.25600      66.69878      28.61079     291.50000        78     s66637n28552e         0         0         0         0  
      79  hru079                  79      43.64800      66.69216      28.62031     293.26393        79     s66637n28552e         0         0         0         0  
      80  hru080                  80      27.67360      66.68441      28.62593     294.36540        80     s66637n28552e         0         0         0         0  
      81  hru081                  81     242.58560      66.67213      28.68626     312.96095        81     s66635n28778e         0         0         0         0  
      82  hru082                  82      60.82560      66.68110      28.63915     299.12542        82     s66637n28552e         0         0         0         0  
      83  hru083                  83     219.26400      66.67584      28.66074     301.86480        83     s66637n28552e         0         0         0         0  
      84  hru084                  84     626.58560      66.66654      28.55648     314.11436        84     s66637n28552e         0         0         0         0  
      85  hru085                  85      97.58720      66.67564      28.62286     293.92209        85     s66637n28552e         0         0         0         0  
      86  hru086                  86     796.16000      66.65787      28.51743     321.76563        86     s66637n28552e         0         0         0         0  
      87  hru087                  87     530.58560      66.66617      28.62997     296.45995        87     s66637n28552e         0         0         0         0  
      88  hru088                  88     225.12640      66.66612      28.70327     322.29020        88     s66635n28778e         0         0         0         0  
      89  hru089                  89      16.35840      66.67185      28.63564     287.51956        89     s66637n28552e         0         0         0         0  
      90  hru090                  90     454.75840      66.65365      28.73200     328.54200        90     s66635n28778e         0         0         0         0  
      91  hru091                  91      63.48800      66.65804      28.61134     287.77056        91     s66637n28552e         0         0         0         0  
      92  hru092                  92     245.88800      66.65286      28.64956     305.46174        92     s66637n28552e         0         0         0         0  
      93  hru093                  93     359.80800      66.64973      28.58131     292.67584        93     s66637n28552e         0         0         0         0  
      94  hru094                  94      14.92480      66.65546      28.61313     285.27444        94     s66637n28552e         0         0         0         0  
      95  hru095                  95      93.18400      66.64846      28.63645     301.03819        95     s66637n28552e         0         0         0         0  
      96  hru096                  96     200.70400      66.65170      28.68961     314.71263        96     s66635n28778e         0         0         0         0  
      97  hru097                  97      41.24160      66.65428      28.60747     286.96089        97     s66637n28552e         0         0         0         0  
      98  hru098                  98       0.92160      66.65652      28.61084     282.77778        98     s66637n28552e         0         0         0         0  
      99  hru099                  99     381.18400      66.63786      28.69536     324.68240        99     s66635n28778e         0         0         0         0  
     100  hru100                 100     371.76320      66.63609      28.73768     322.90718       100     s66635n28778e         0         0         0         0  
     101  hru101                 101       0.58880      66.64741      28.63072     288.95652       101     s66637n28552e         0         0         0         0  
     102  hru102                 102     199.52640      66.63919      28.64321     321.52066       102     s66637n28552e         0         0         0         0  
     103  hru103                 103     304.46080      66.63738      28.51084     288.34911       103     s66637n28552e         0         0         0         0  
     104  hru104                 104     182.27200      66.63776      28.61713     294.82992       104     s66637n28552e         0         0         0         0  
     105  hru105                 105     301.77280      66.63461      28.58892     294.82669       105     s66637n28552e         0         0         0         0  
     106  hru106                 106      38.32320      66.63265      28.57310     287.56847       106     s66637n28552e         0         0         0         0  
     107  hru107                 107     226.17600      66.62971      28.65806     322.83905       107     s66637n28552e         0         0         0         0  
     108  hru108                 108     225.04960      66.62807      28.53136     282.86031       108     s66637n28552e         0         0         0         0  
     109  hru109                 109     547.68640      66.62696      28.46438     294.26063       109     s66637n28552e         0         0         0         0  
     110  hru110                 110     291.02080      66.62263      28.55985     286.45989       110     s66637n28552e         0         0         0         0  
     111  hru111                 111     263.42400      66.61961      28.58400     295.28105       111     s66637n28552e         0         0         0         0  
     112  hru112                 112     240.02560      66.62219      28.63563     302.20392       112     s66637n28552e         0         0         0         0  
     113  hru113                 113     407.16800      66.61571      28.48275     295.73348       113     s66637n28552e         0         0         0         0  
     114  hru114                 114     153.42080      66.61514      28.53725     280.84665       114     s66637n28552e         0         0         0         0  
     115  hru115                 115     383.43680      66.60628      28.44381     306.39344       115     s66637n28552e         0         0         0         0  
     116  hru116                 116     356.78720      66.60395      28.50256     291.16704       116     s66637n28552e         0         0         0         0  
     117  hru117                 117      51.73760      66.60862      28.52362     278.17862       117     s66637n28552e         0         0         0         0  
     118  hru118                 118     351.30880      66.60306      28.55673     287.17656       118     s66637n28552e         0         0         0         0  
     119  hru119                 119       1.66400      66.61308      28.43776     294.95385       119     s66637n28552e         0         0         0         0  
     120  hru120                 120     369.81760      66.59300      28.58123     289.88973       120     s66637n28552e         0         0         0         0  
     121  hru121                 121       4.35200      66.60039      28.52676     271.98235       121     s66637n28552e         0         0         0         0  
     122  hru122                 122     298.52160      66.59202      28.49398     293.10093       122     s66547n28547e         0         0         0         0  
     123  hru123                 123     116.88960      66.59148      28.52735     282.01971       123     s66547n28547e         0         0         0         0  
     124  hru124                 124     384.51200      66.57881      28.47333     290.35759       124     s66547n28547e         0         0         0         0  
     125  hru125                 125     190.23360      66.57758      28.57021     273.55995       125     s66547n28547e         0         0         0         0  
     126  hru126                 126     430.51520      66.57724      28.52789     278.24083       126     s66547n28547e         0         0         0         0  
     127  hru127                 127     242.45760      66.56709      28.56544     273.78693       127     s66547n28547e         0         0         0         0  
     128  hru128                 128       7.19360      66.58446      28.50371     287.40925       128     s66547n28547e         0         0         0         0  
     129  hru129                 129      98.76480      66.56960      28.50082     277.96242       129     s66547n28547e         0         0         0         0  
     130  hru130                 130     401.84320      66.55990      28.47076     300.29993       130     s66547n28547e         0         0         0         0  
     131  hru131                 131     248.52480      66.56102      28.52656     267.75927       131     s66547n28547e         0         0         0         0  
     132  hru132                 132     161.51040      66.55407      28.55786     264.40149       132     s66547n28547e         0         0         0         0  
     133  hru133                 133      72.67840      66.55518      28.51045     271.04121       133     s66547n28547e         0         0         0         0  
     134  hru134                 134       6.32320      66.56195      28.49627     270.15385       134     s66547n28547e         0         0         0         0  
     135  hru135                 135       0.07680      66.56165      28.49927     264.00000       135     s66547n28547e         0         0         0         0  
     136  hru136                 136     228.40320      66.54866      28.49675     296.76575       136     s66547n28547e         0         0         0         0  
     137  hru137                 137     138.64960      66.54971      28.58191     262.41968       137     s66547n28547e         0         0         0         0  
     138  hru138                 138     292.07040      66.54478      28.54656     262.15225       138     s66547n28547e         0         0         0         0  
     139  hru139                 139      29.38880      66.54798      28.57303     259.01829       139     s66547n28547e         0         0         0         0  
     140  hru140                 140     325.04320      66.67095      29.42449     391.19879       140     s66626n29456e         0         0         0         0  
     141  hru141                 141     279.37280      66.66192      29.40680     386.87226       141     s66626n29456e         0         0         0         0  
     142  hru142                 142     243.43040      66.65721      29.35973     382.18982       142     s66626n29456e         0         0         0         0  
     143  hru143                 143     692.73600      66.64607      29.44308     327.23551       143     s66626n29456e         0         0         0         0  
     144  hru144                 144     305.89440      66.64795      29.39234     352.95723       144     s66626n29456e         0         0         0         0  
     145  hru145                 145     212.99200      66.64246      29.37734     332.25252       145     s66626n29456e         0         0         0         0  
     146  hru146                 146      23.32160      66.64272      29.41454     329.36334       146     s66626n29456e         0         0         0         0  
     147  hru147                 147     216.70400      66.63584      29.35777     308.68541       147     s66626n29456e         0         0         0         0  
     148  hru148                 148      10.67520      66.64383      29.39691     311.15108       148     s66626n29456e         0         0         0         0  
     149  hru149                 149     450.25280      66.62875      29.46635     327.29651       149     s66626n29456e         0         0         0         0  
     150  hru150                 150     282.64960      66.62803      29.33861     289.48483       150     s66629n29230e         0         0         0         0  
     151  hru151                 151     220.64640      66.62854      29.41913     331.76598       151     s66626n29456e         0         0         0         0  
     152  hru152                 152     376.06400      66.62224      29.39559     321.65412       152     s66626n29456e         0         0         0         0  
     153  hru153                 153     114.15040      66.61833      29.36975     282.78672       153     s66626n29456e         0         0         0         0  
     154  hru154                 154      15.89760      66.62147      29.37492     281.85829       154     s66626n29456e         0         0         0         0  
     155  hru155                 155       5.32480      66.62119      29.37175     283.51442       155     s66626n29456e         0         0         0         0  
     156  hru156                 156      35.20000      66.61613      29.35946     281.44364       156     s66626n29456e         0         0         0         0  
     157  hru157                 157    1142.68160      66.69282      29.38934     396.05446       157     s66626n29456e         0         0         0         0  
     158  hru158                 158     281.60000      66.69932      29.35516     398.83318       158     s66719n29238e         0         0         0         0  
     159  hru159                 159    1180.85120      66.67634      29.32170     337.29985       159     s66719n29238e         0         0         0         0  
     160  hru160                 160     370.68800      66.66862      29.26952     292.57348       160     s66629n29230e         0         0         0         0  
     161  hru161                 161     548.71040      66.66505      29.23767     288.74340       161     s66629n29230e         0         0         0         0  
     162  hru162                 162     489.88160      66.65476      29.32539     320.83868       162     s66629n29230e         0         0         0         0  
     163  hru163                 163     359.91040      66.65206      29.20541     279.04360       163     s66629n29230e         0         0         0         0  
     164  hru164                 164      49.22880      66.65040      29.26290     271.29173       164     s66629n29230e         0         0         0         0  
     165  hru165                 165     109.08160      66.64478      29.23206     268.51091       165     s66629n29230e         0         0         0         0  
     166  hru166                 166      96.46080      66.64522      29.25286     272.13615       166     s66629n29230e         0         0         0         0  
     167  hru167                 167      22.01600      66.64995      29.27382     271.60000       167     s66629n29230e         0         0         0         0  
     168  hru168                 168     475.49440      66.63629      29.30411     282.19646       168     s66629n29230e         0         0         0         0  
     169  hru169                 169      13.08160      66.64818      29.28367     274.88258       169     s66629n29230e         0         0         0         0  
     170  hru170                 170     220.64640      66.63306      29.27763     275.92899       170     s66629n29230e         0         0         0         0  
     171  hru171                 171     362.08640      66.62813      29.26221     270.81561       171     s66629n29230e         0         0         0         0  
     172  hru172                 172      21.17120      66.63521      29.23111     266.15961       172     s66629n29230e         0         0         0         0  
     173  hru173                 173      21.88800      66.63058      29.23358     265.39415       173     s66629n29230e         0         0         0         0  
     174  hru174                 174     405.06880      66.71528      29.33057     429.04474       174     s66719n29238e         0         0         0         0  
     175  hru175                 175     441.19040      66.71784      29.23597     316.42892       175     s66719n29238e         0         0         0         0  
     176  hru176                 176     220.49280      66.71538      29.29210     378.03123       176     s66719n29238e         0         0         0         0  
     177  hru177                 177     317.00480      66.70912      29.23861     301.26230       177     s66719n29238e         0         0         0         0  
     178  hru178                 178     264.32000      66.69953      29.27201     324.71002       178     s66719n29238e         0         0         0         0  
     179  hru179                 179      46.05440      66.70435      29.28187     341.47137       179     s66719n29238e         0         0         0         0  
     180  hru180                 180     231.21920      66.70135      29.31264     381.62976       180     s66719n29238e         0         0         0         0  
     181  hru181                 181       7.55200      66.70528      29.21156     291.78983       181     s66719n29238e         0         0         0         0  