hydrology.hyd: written by SWAT+ editor v3.0.8 on 2025-07-29 21:28 for SWAT+ rev.61.0.1
     name  lat_ttime  lat_sed  can_max    esco    epco  orgn_enrich  orgp_enrich  cn3_swf  bio_mix   perco  lat_orgn  lat_orgp  pet_co  latq_co
   hyd001        0.0      0.0      1.0    0.95    0.75          0.0          0.0     0.95      0.2    0.05       0.0       0.0     1.0     0.01
   hyd002        0.0      0.0      1.0    0.95    0.75          0.0          0.0     0.95      0.2    0.05       0.0       0.0     1.0     0.01
   hyd003        0.0      0.0      1.0    0.95    0.75          0.0          0.0     0.95      0.2    0.05       0.0       0.0     1.0     0.01
   hyd004        0.0      0.0      1.0    0.95    0.75          0.0          0.0     0.95      0.2    0.90       0.0       0.0     1.0     0.01
   hyd005        0.0      0.0      1.0    0.95    0.75          0.0          0.0     0.95      0.2    0.05       0.0       0.0     1.0     0.01
   hyd006        0.0      0.0      1.0    0.95    0.75          0.0          0.0     0.95      0.2    0.90       0.0       0.0     1.0     0.01
   hyd007        0.0      0.0      1.0    0.95    0.75          0.0          0.0     0.95      0.2    0.90       0.0       0.0     1.0     0.01
   hyd008        0.0      0.0      1.0    0.95    0.75          0.0          0.0     0.95      0.2    0.90       0.0       0.0     1.0     0.01
   hyd009        0.0      0.0      1.0    0.95    0.75          0.0          0.0     0.95      0.2    0.90       0.0       0.0     1.0     0.01
   hyd010        0.0      0.0      1.0    0.95    0.75          0.0          0.0     0.95      0.2    0.90       0.0       0.0     1.0     0.01
   hyd011        0.0      0.0      1.0    0.95    0.75          0.0          0.0     0.95      0.2    0.90       0.0       0.0     1.0     0.01
   hyd012        0.0      0.0      1.0    0.95    0.75          0.0          0.0     0.95      0.2    0.90       0.0       0.0     1.0     0.01
   hyd013        0.0      0.0      1.0    0.95    0.75          0.0          0.0     0.95      0.2    0.90       0.0       0.0     1.0     0.01
   hyd014        0.0      0.0      1.0    0.95    0.75          0.0          0.0     0.95      0.2    0.90       0.0       0.0     1.0     0.01
   hyd015        0.0      0.0      1.0    0.95    0.75          0.0          0.0     0.95      0.2    0.90       0.0       0.0     1.0     0.01
   hyd016        0.0      0.0      1.0    0.95    0.75          0.0          0.0     0.95      0.2    0.90       0.0       0.0     1.0     0.01
   hyd017        0.0      0.0      1.0    0.95    0.75          0.0          0.0     0.95      0.2    0.90       0.0       0.0     1.0     0.01
   hyd018        0.0      0.0      1.0    0.95    0.75          0.0          0.0     0.95      0.2    0.90       0.0       0.0     1.0     0.01
   hyd019        0.0      0.0      1.0    0.95    0.75          0.0          0.0     0.95      0.2    0.90       0.0       0.0     1.0     0.01
   hyd020        0.0      0.0      1.0    0.95    0.75          0.0          0.0     0.95      0.2    0.90       0.0       0.0     1.0     0.01
   hyd021        0.0      0.0      1.0    0.95    0.75          0.0          0.0     0.95      0.2    0.90       0.0       0.0     1.0     0.01
   hyd022        0.0      0.0      1.0    0.95    0.75          0.0          0.0     0.95      0.2    0.90       0.0       0.0     1.0     0.01
   hyd023        0.0      0.0      1.0    0.95    0.75          0.0          0.0     0.95      0.2    0.90       0.0       0.0     1.0     0.01
   hyd024        0.0      0.0      1.0    0.95    0.75          0.0          0.0     0.95      0.2    0.90       0.0       0.0     1.0     0.01
   hyd025        0.0      0.0      1.0    0.95    0.75          0.0          0.0     0.95      0.2    0.90       0.0       0.0     1.0     0.01
   hyd026        0.0      0.0      1.0    0.95    0.75          0.0          0.0     0.95      0.2    0.90       0.0       0.0     1.0     0.01
   hyd027        0.0      0.0      1.0    0.95    0.75          0.0          0.0     0.95      0.2    0.90       0.0       0.0     1.0     0.01
   hyd028        0.0      0.0      1.0    0.95    0.75          0.0          0.0     0.95      0.2    0.90       0.0       0.0     1.0     0.01
   hyd029        0.0      0.0      1.0    0.95    0.75          0.0          0.0     0.95      0.2    0.90       0.0       0.0     1.0     0.01
   hyd030        0.0      0.0      1.0    0.95    0.75          0.0          0.0     0.95      0.2    0.90       0.0       0.0     1.0     0.01
   hyd031        0.0      0.0      1.0    0.95    0.75          0.0          0.0     0.95      0.2    0.90       0.0       0.0     1.0     0.01
   hyd032        0.0      0.0      1.0    0.95    0.75          0.0          0.0     0.95      0.2    0.90       0.0       0.0     1.0     0.01
   hyd033        0.0      0.0      1.0    0.95    0.75          0.0          0.0     0.95      0.2    0.90       0.0       0.0     1.0     0.01
   hyd034        0.0      0.0      1.0    0.95    0.75          0.0          0.0     0.95      0.2    0.90       0.0       0.0     1.0     0.01
   hyd035        0.0      0.0      1.0    0.95    0.75          0.0          0.0     0.95      0.2    0.90       0.0       0.0     1.0     0.01
   hyd036        0.0      0.0      1.0    0.95    0.75          0.0          0.0     0.95      0.2    0.90       0.0       0.0     1.0     0.01
   hyd037        0.0      0.0      1.0    0.95    0.75          0.0          0.0     0.95      0.2    0.90       0.0       0.0     1.0     0.01
   hyd038        0.0      0.0      1.0    0.95    0.75          0.0          0.0     0.95      0.2    0.90       0.0       0.0     1.0     0.01
   hyd039        0.0      0.0      1.0    0.95    0.75          0.0          0.0     0.95      0.2    0.90       0.0       0.0     1.0     0.01
   hyd040        0.0      0.0      1.0    0.95    0.75          0.0          0.0     0.95      0.2    0.90       0.0       0.0     1.0     0.01
   hyd041        0.0      0.0      1.0    0.95    0.75          0.0          0.0     0.95      0.2    0.90       0.0       0.0     1.0     0.01
   hyd042        0.0      0.0      1.0    0.95    0.75          0.0          0.0     0.95      0.2    0.90       0.0       0.0     1.0     0.01
   hyd043        0.0      0.0      1.0    0.95    0.75          0.0          0.0     0.95      0.2    0.90       0.0       0.0     1.0     0.01
   hyd044        0.0      0.0      1.0    0.95    0.75          0.0          0.0     0.95      0.2    0.90       0.0       0.0     1.0     0.01
   hyd045        0.0      0.0      1.0    0.95    0.75          0.0          0.0     0.95      0.2    0.90       0.0       0.0     1.0     0.01
   hyd046        0.0      0.0      1.0    0.95    0.75          0.0          0.0     0.95      0.2    0.90       0.0       0.0     1.0     0.01
   hyd047        0.0      0.0      1.0    0.95    0.75          0.0          0.0     0.95      0.2    0.90       0.0       0.0     1.0     0.01
   hyd048        0.0      0.0      1.0    0.95    0.75          0.0          0.0     0.95      0.2    0.90       0.0       0.0     1.0     0.01
   hyd049        0.0      0.0      1.0    0.95    0.75          0.0          0.0     0.95      0.2    0.90       0.0       0.0     1.0     0.01
   hyd050        0.0      0.0      1.0    0.95    0.75          0.0          0.0     0.95      0.2    0.90       0.0       0.0     1.0     0.01
   hyd051        0.0      0.0      1.0    0.95    0.75          0.0          0.0     0.95      0.2    0.90       0.0       0.0     1.0     0.01
   hyd052        0.0      0.0      1.0    0.95    0.75          0.0          0.0     0.95      0.2    0.90       0.0       0.0     1.0     0.01
   hyd053        0.0      0.0      1.0    0.95    0.75          0.0          0.0     0.95      0.2    0.90       0.0       0.0     1.0     0.01
   hyd054        0.0      0.0      1.0    0.95    0.75          0.0          0.0     0.95      0.2    0.90       0.0       0.0     1.0     0.01
   hyd055        0.0      0.0      1.0    0.95    0.75          0.0          0.0     0.95      0.2    0.90       0.0       0.0     1.0     0.01
   hyd056        0.0      0.0      1.0    0.95    0.75          0.0          0.0     0.95      0.2    0.90       0.0       0.0     1.0     0.01
   hyd057        0.0      0.0      1.0    0.95    0.75          0.0          0.0     0.95      0.2    0.90       0.0       0.0     1.0     0.01
   hyd058        0.0      0.0      1.0    0.95    0.75          0.0          0.0     0.95      0.2    0.90       0.0       0.0     1.0     0.01
   hyd059        0.0      0.0      1.0    0.95    0.75          0.0          0.0     0.95      0.2    0.90       0.0       0.0     1.0     0.01
   hyd060        0.0      0.0      1.0    0.95    0.75          0.0          0.0     0.95      0.2    0.90       0.0       0.0     1.0     0.01
   hyd061        0.0      0.0      1.0    0.95    0.75          0.0          0.0     0.95      0.2    0.90       0.0       0.0     1.0     0.01
   hyd062        0.0      0.0      1.0    0.95    0.75          0.0          0.0     0.95      0.2    0.90       0.0       0.0     1.0     0.01
   hyd063        0.0      0.0      1.0    0.95    0.75          0.0          0.0     0.95      0.2    0.90       0.0       0.0     1.0     0.01
   hyd064        0.0      0.0      1.0    0.95    0.75          0.0          0.0     0.95      0.2    0.90       0.0       0.0     1.0     0.01
   hyd065        0.0      0.0      1.0    0.95    0.75          0.0          0.0     0.95      0.2    0.90       0.0       0.0     1.0     0.01
   hyd066        0.0      0.0      1.0    0.95    0.75          0.0          0.0     0.95      0.2    0.90       0.0       0.0     1.0     0.01
   hyd067        0.0      0.0      1.0    0.95    0.75          0.0          0.0     0.95      0.2    0.90       0.0       0.0     1.0     0.01
   hyd068        0.0      0.0      1.0    0.95    0.75          0.0          0.0     0.95      0.2    0.90       0.0       0.0     1.0     0.01
   hyd069        0.0      0.0      1.0    0.95    0.75          0.0          0.0     0.95      0.2    0.90       0.0       0.0     1.0     0.01
   hyd070        0.0      0.0      1.0    0.95    0.75          0.0          0.0     0.95      0.2    0.90       0.0       0.0     1.0     0.01
   hyd071        0.0      0.0      1.0    0.95    0.75          0.0          0.0     0.95      0.2    0.90       0.0       0.0     1.0     0.01
   hyd072        0.0      0.0      1.0    0.95    0.75          0.0          0.0     0.95      0.2    0.90       0.0       0.0     1.0     0.01
   hyd073        0.0      0.0      1.0    0.95    0.75          0.0          0.0     0.95      0.2    0.90       0.0       0.0     1.0     0.01
   hyd074        0.0      0.0      1.0    0.95    0.75          0.0          0.0     0.95      0.2    0.90       0.0       0.0     1.0     0.01
   hyd075        0.0      0.0      1.0    0.95    0.75          0.0          0.0     0.95      0.2    0.05       0.0       0.0     1.0     0.01
   hyd076        0.0      0.0      1.0    0.95    0.75          0.0          0.0     0.95      0.2    0.05       0.0       0.0     1.0     0.01
   hyd077        0.0      0.0      1.0    0.95    0.75          0.0          0.0     0.95      0.2    0.05       0.0       0.0     1.0     0.01
   hyd078        0.0      0.0      1.0    0.95    0.75          0.0          0.0     0.95      0.2    0.90       0.0       0.0     1.0     0.01
   hyd079        0.0      0.0      1.0    0.95    0.75          0.0          0.0     0.95      0.2    0.90       0.0       0.0     1.0     0.01
   hyd080        0.0      0.0      1.0    0.95    0.75          0.0          0.0     0.95      0.2    0.90       0.0       0.0     1.0     0.01
   hyd081        0.0      0.0      1.0    0.95    0.75          0.0          0.0     0.95      0.2    0.05       0.0       0.0     1.0     0.01
   hyd082        0.0      0.0      1.0    0.95    0.75          0.0          0.0     0.95      0.2    0.05       0.0       0.0     1.0     0.01
   hyd083        0.0      0.0      1.0    0.95    0.75          0.0          0.0     0.95      0.2    0.05       0.0       0.0     1.0     0.01
   hyd084        0.0      0.0      1.0    0.95    0.75          0.0          0.0     0.95      0.2    0.05       0.0       0.0     1.0     0.01
   hyd085        0.0      0.0      1.0    0.95    0.75          0.0          0.0     0.95      0.2    0.05       0.0       0.0     1.0     0.01
   hyd086        0.0      0.0      1.0    0.95    0.75          0.0          0.0     0.95      0.2    0.05       0.0       0.0     1.0     0.01
   hyd087        0.0      0.0      1.0    0.95    0.75          0.0          0.0     0.95      0.2    0.05       0.0       0.0     1.0     0.01
   hyd088        0.0      0.0      1.0    0.95    0.75          0.0          0.0     0.95      0.2    0.05       0.0       0.0     1.0     0.01
   hyd089        0.0      0.0      1.0    0.95    0.75          0.0          0.0     0.95      0.2    0.05       0.0       0.0     1.0     0.01
   hyd090        0.0      0.0      1.0    0.95    0.75          0.0          0.0     0.95      0.2    0.05       0.0       0.0     1.0     0.01
   hyd091        0.0      0.0      1.0    0.95    0.75          0.0          0.0     0.95      0.2    0.05       0.0       0.0     1.0     0.01
   hyd092        0.0      0.0      1.0    0.95    0.75          0.0          0.0     0.95      0.2    0.05       0.0       0.0     1.0     0.01
   hyd093        0.0      0.0      1.0    0.95    0.75          0.0          0.0     0.95      0.2    0.05       0.0       0.0     1.0     0.01
   hyd094        0.0      0.0      1.0    0.95    0.75          0.0          0.0     0.95      0.2    0.05       0.0       0.0     1.0     0.01
   hyd095        0.0      0.0      1.0    0.95    0.75          0.0          0.0     0.95      0.2    0.05       0.0       0.0     1.0     0.01
   hyd096        0.0      0.0      1.0    0.95    0.75          0.0          0.0     0.95      0.2    0.05       0.0       0.0     1.0     0.01
   hyd097        0.0      0.0      1.0    0.95    0.75          0.0          0.0     0.95      0.2    0.05       0.0       0.0     1.0     0.01
   hyd098        0.0      0.0      1.0    0.95    0.75          0.0          0.0     0.95      0.2    0.05       0.0       0.0     1.0     0.01
   hyd099        0.0      0.0      1.0    0.95    0.75          0.0          0.0     0.95      0.2    0.05       0.0       0.0     1.0     0.01
   hyd100        0.0      0.0      1.0    0.95    0.75          0.0          0.0     0.95      0.2    0.05       0.0       0.0     1.0     0.01
   hyd101        0.0      0.0      1.0    0.95    0.75          0.0          0.0     0.95      0.2    0.05       0.0       0.0     1.0     0.01
   hyd102        0.0      0.0      1.0    0.95    0.75          0.0          0.0     0.95      0.2    0.05       0.0       0.0     1.0     0.01
   hyd103        0.0      0.0      1.0    0.95    0.75          0.0          0.0     0.95      0.2    0.05       0.0       0.0     1.0     0.01
   hyd104        0.0      0.0      1.0    0.95    0.75          0.0          0.0     0.95      0.2    0.05       0.0       0.0     1.0     0.01
   hyd105        0.0      0.0      1.0    0.95    0.75          0.0          0.0     0.95      0.2    0.05       0.0       0.0     1.0     0.01
   hyd106        0.0      0.0      1.0    0.95    0.75          0.0          0.0     0.95      0.2    0.05       0.0       0.0     1.0     0.01
   hyd107        0.0      0.0      1.0    0.95    0.75          0.0          0.0     0.95      0.2    0.05       0.0       0.0     1.0     0.01
   hyd108        0.0      0.0      1.0    0.95    0.75          0.0          0.0     0.95      0.2    0.90       0.0       0.0     1.0     0.01
   hyd109        0.0      0.0      1.0    0.95    0.75          0.0          0.0     0.95      0.2    0.90       0.0       0.0     1.0     0.01
   hyd110        0.0      0.0      1.0    0.95    0.75          0.0          0.0     0.95      0.2    0.90       0.0       0.0     1.0     0.01
   hyd111        0.0      0.0      1.0    0.95    0.75          0.0          0.0     0.95      0.2    0.90       0.0       0.0     1.0     0.01
   hyd112        0.0      0.0      1.0    0.95    0.75          0.0          0.0     0.95      0.2    0.90       0.0       0.0     1.0     0.01
   hyd113        0.0      0.0      1.0    0.95    0.75          0.0          0.0     0.95      0.2    0.90       0.0       0.0     1.0     0.01
   hyd114        0.0      0.0      1.0    0.95    0.75          0.0          0.0     0.95      0.2    0.90       0.0       0.0     1.0     0.01
   hyd115        0.0      0.0      1.0    0.95    0.75          0.0          0.0     0.95      0.2    0.90       0.0       0.0     1.0     0.01
   hyd116        0.0      0.0      1.0    0.95    0.75          0.0          0.0     0.95      0.2    0.90       0.0       0.0     1.0     0.01
   hyd117        0.0      0.0      1.0    0.95    0.75          0.0          0.0     0.95      0.2    0.90       0.0       0.0     1.0     0.01
   hyd118        0.0      0.0      1.0    0.95    0.75          0.0          0.0     0.95      0.2    0.90       0.0       0.0     1.0     0.01
   hyd119        0.0      0.0      1.0    0.95    0.75          0.0          0.0     0.95      0.2    0.90       0.0       0.0     1.0     0.01
   hyd120        0.0      0.0      1.0    0.95    0.75          0.0          0.0     0.95      0.2    0.90       0.0       0.0     1.0     0.01
   hyd121        0.0      0.0      1.0    0.95    0.75          0.0          0.0     0.95      0.2    0.90       0.0       0.0     1.0     0.01
   hyd122        0.0      0.0      1.0    0.95    0.75          0.0          0.0     0.95      0.2    0.90       0.0       0.0     1.0     0.01
   hyd123        0.0      0.0      1.0    0.95    0.75          0.0          0.0     0.95      0.2    0.90       0.0       0.0     1.0     0.01
   hyd124        0.0      0.0      1.0    0.95    0.75          0.0          0.0     0.95      0.2    0.90       0.0       0.0     1.0     0.01
   hyd125        0.0      0.0      1.0    0.95    0.75          0.0          0.0     0.95      0.2    0.90       0.0       0.0     1.0     0.01
   hyd126        0.0      0.0      1.0    0.95    0.75          0.0          0.0     0.95      0.2    0.90       0.0       0.0     1.0     0.01
   hyd127        0.0      0.0      1.0    0.95    0.75          0.0          0.0     0.95      0.2    0.90       0.0       0.0     1.0     0.01
   hyd128        0.0      0.0      1.0    0.95    0.75          0.0          0.0     0.95      0.2    0.90       0.0       0.0     1.0     0.01
   hyd129        0.0      0.0      1.0    0.95    0.75          0.0          0.0     0.95      0.2    0.90       0.0       0.0     1.0     0.01
   hyd130        0.0      0.0      1.0    0.95    0.75          0.0          0.0     0.95      0.2    0.90       0.0       0.0     1.0     0.01
   hyd131        0.0      0.0      1.0    0.95    0.75          0.0          0.0     0.95      0.2    0.90       0.0       0.0     1.0     0.01
   hyd132        0.0      0.0      1.0    0.95    0.75          0.0          0.0     0.95      0.2    0.90       0.0       0.0     1.0     0.01
   hyd133        0.0      0.0      1.0    0.95    0.75          0.0          0.0     0.95      0.2    0.90       0.0       0.0     1.0     0.01
   hyd134        0.0      0.0      1.0    0.95    0.75          0.0          0.0     0.95      0.2    0.90       0.0       0.0     1.0     0.01
   hyd135        0.0      0.0      1.0    0.95    0.75          0.0          0.0     0.95      0.2    0.90       0.0       0.0     1.0     0.01
   hyd136        0.0      0.0      1.0    0.95    0.75          0.0          0.0     0.95      0.2    0.90       0.0       0.0     1.0     0.01
   hyd137        0.0      0.0      1.0    0.95    0.75          0.0          0.0     0.95      0.2    0.90       0.0       0.0     1.0     0.01
   hyd138        0.0      0.0      1.0    0.95    0.75          0.0          0.0     0.95      0.2    0.90       0.0       0.0     1.0     0.01
   hyd139        0.0      0.0      1.0    0.95    0.75          0.0          0.0     0.95      0.2    0.90       0.0       0.0     1.0     0.01
   hyd140        0.0      0.0      1.0    0.95    0.75          0.0          0.0     0.95      0.2    0.90       0.0       0.0     1.0     0.01
   hyd141        0.0      0.0      1.0    0.95    0.75          0.0          0.0     0.95      0.2    0.90       0.0       0.0     1.0     0.01
   hyd142        0.0      0.0      1.0    0.95    0.75          0.0          0.0     0.95      0.2    0.90       0.0       0.0     1.0     0.01
   hyd143        0.0      0.0      1.0    0.95    0.75          0.0          0.0     0.95      0.2    0.90       0.0       0.0     1.0     0.01
   hyd144        0.0      0.0      1.0    0.95    0.75          0.0          0.0     0.95      0.2    0.90       0.0       0.0     1.0     0.01
   hyd145        0.0      0.0      1.0    0.95    0.75          0.0          0.0     0.95      0.2    0.90       0.0       0.0     1.0     0.01
   hyd146        0.0      0.0      1.0    0.95    0.75          0.0          0.0     0.95      0.2    0.90       0.0       0.0     1.0     0.01
   hyd147        0.0      0.0      1.0    0.95    0.75          0.0          0.0     0.95      0.2    0.90       0.0       0.0     1.0     0.01
   hyd148        0.0      0.0      1.0    0.95    0.75          0.0          0.0     0.95      0.2    0.90       0.0       0.0     1.0     0.01
   hyd149        0.0      0.0      1.0    0.95    0.75          0.0          0.0     0.95      0.2    0.90       0.0       0.0     1.0     0.01
   hyd150        0.0      0.0      1.0    0.95    0.75          0.0          0.0     0.95      0.2    0.90       0.0       0.0     1.0     0.01
   hyd151        0.0      0.0      1.0    0.95    0.75          0.0          0.0     0.95      0.2    0.90       0.0       0.0     1.0     0.01
   hyd152        0.0      0.0      1.0    0.95    0.75          0.0          0.0     0.95      0.2    0.90       0.0       0.0     1.0     0.01
   hyd153        0.0      0.0      1.0    0.95    0.75          0.0          0.0     0.95      0.2    0.90       0.0       0.0     1.0     0.01
   hyd154        0.0      0.0      1.0    0.95    0.75          0.0          0.0     0.95      0.2    0.90       0.0       0.0     1.0     0.01
   hyd155        0.0      0.0      1.0    0.95    0.75          0.0          0.0     0.95      0.2    0.90       0.0       0.0     1.0     0.01
   hyd156        0.0      0.0      1.0    0.95    0.75          0.0          0.0     0.95      0.2    0.90       0.0       0.0     1.0     0.01
   hyd157        0.0      0.0      1.0    0.95    0.75          0.0          0.0     0.95      0.2    0.90       0.0       0.0     1.0     0.01
   hyd158        0.0      0.0      1.0    0.95    0.75          0.0          0.0     0.95      0.2    0.90       0.0       0.0     1.0     0.01
   hyd159        0.0      0.0      1.0    0.95    0.75          0.0          0.0     0.95      0.2    0.90       0.0       0.0     1.0     0.01
   hyd160        0.0      0.0      1.0    0.95    0.75          0.0          0.0     0.95      0.2    0.90       0.0       0.0     1.0     0.01
   hyd161        0.0      0.0      1.0    0.95    0.75          0.0          0.0     0.95      0.2    0.90       0.0       0.0     1.0     0.01
   hyd162        0.0      0.0      1.0    0.95    0.75          0.0          0.0     0.95      0.2    0.90       0.0       0.0     1.0     0.01
   hyd163        0.0      0.0      1.0    0.95    0.75          0.0          0.0     0.95      0.2    0.90       0.0       0.0     1.0     0.01
   hyd164        0.0      0.0      1.0    0.95    0.75          0.0          0.0     0.95      0.2    0.90       0.0       0.0     1.0     0.01
   hyd165        0.0      0.0      1.0    0.95    0.75          0.0          0.0     0.95      0.2    0.90       0.0       0.0     1.0     0.01
   hyd166        0.0      0.0      1.0    0.95    0.75          0.0          0.0     0.95      0.2    0.90       0.0       0.0     1.0     0.01
   hyd167        0.0      0.0      1.0    0.95    0.75          0.0          0.0     0.95      0.2    0.90       0.0       0.0     1.0     0.01
   hyd168        0.0      0.0      1.0    0.95    0.75          0.0          0.0     0.95      0.2    0.90       0.0       0.0     1.0     0.01
   hyd169        0.0      0.0      1.0    0.95    0.75          0.0          0.0     0.95      0.2    0.90       0.0       0.0     1.0     0.01
   hyd170        0.0      0.0      1.0    0.95    0.75          0.0          0.0     0.95      0.2    0.90       0.0       0.0     1.0     0.01
   hyd171        0.0      0.0      1.0    0.95    0.75          0.0          0.0     0.95      0.2    0.90       0.0       0.0     1.0     0.01
   hyd172        0.0      0.0      1.0    0.95    0.75          0.0          0.0     0.95      0.2    0.90       0.0       0.0     1.0     0.01
   hyd173        0.0      0.0      1.0    0.95    0.75          0.0          0.0     0.95      0.2    0.90       0.0       0.0     1.0     0.01
   hyd174        0.0      0.0      1.0    0.95    0.75          0.0          0.0     0.95      0.2    0.90       0.0       0.0     1.0     0.01
   hyd175        0.0      0.0      1.0    0.95    0.75          0.0          0.0     0.95      0.2    0.90       0.0       0.0     1.0     0.01
   hyd176        0.0      0.0      1.0    0.95    0.75          0.0          0.0     0.95      0.2    0.90       0.0       0.0     1.0     0.01
   hyd177        0.0      0.0      1.0    0.95    0.75          0.0          0.0     0.95      0.2    0.05       0.0       0.0     1.0     0.01
   hyd178        0.0      0.0      1.0    0.95    0.75          0.0          0.0     0.95      0.2    0.90       0.0       0.0     1.0     0.01
   hyd179        0.0      0.0      1.0    0.95    0.75          0.0          0.0     0.95      0.2    0.05       0.0       0.0     1.0     0.01
   hyd180        0.0      0.0      1.0    0.95    0.75          0.0          0.0     0.95      0.2    0.90       0.0       0.0     1.0     0.01
   hyd181        0.0      0.0      1.0    0.95    0.75          0.0          0.0     0.95      0.2    0.05       0.0       0.0     1.0     0.01
   hyd182        0.0      0.0      1.0    0.95    0.75          0.0          0.0     0.95      0.2    0.05       0.0       0.0     1.0     0.01
   hyd183        0.0      0.0      1.0    0.95    0.75          0.0          0.0     0.95      0.2    0.05       0.0       0.0     1.0     0.01
   hyd184        0.0      0.0      1.0    0.95    0.75          0.0          0.0     0.95      0.2    0.05       0.0       0.0     1.0     0.01
   hyd185        0.0      0.0      1.0    0.95    0.75          0.0          0.0     0.95      0.2    0.05       0.0       0.0     1.0     0.01
   hyd186        0.0      0.0      1.0    0.95    0.75          0.0          0.0     0.95      0.2    0.05       0.0       0.0     1.0     0.01
   hyd187        0.0      0.0      1.0    0.95    0.75          0.0          0.0     0.95      0.2    0.05       0.0       0.0     1.0     0.01
   hyd188        0.0      0.0      1.0    0.95    0.75          0.0          0.0     0.95      0.2    0.05       0.0       0.0     1.0     0.01
   hyd189        0.0      0.0      1.0    0.95    0.75          0.0          0.0     0.95      0.2    0.90       0.0       0.0     1.0     0.01
   hyd190        0.0      0.0      1.0    0.95    0.75          0.0          0.0     0.95      0.2    0.90       0.0       0.0     1.0     0.01
   hyd191        0.0      0.0      1.0    0.95    0.75          0.0          0.0     0.95      0.2    0.90       0.0       0.0     1.0     0.01
   hyd192        0.0      0.0      1.0    0.95    0.75          0.0          0.0     0.95      0.2    0.90       0.0       0.0     1.0     0.01
   hyd193        0.0      0.0      1.0    0.95    0.75          0.0          0.0     0.95      0.2    0.90       0.0       0.0     1.0     0.01
   hyd194        0.0      0.0      1.0    0.95    0.75          0.0          0.0     0.95      0.2    0.90       0.0       0.0     1.0     0.01
   hyd195        0.0      0.0      1.0    0.95    0.75          0.0          0.0     0.95      0.2    0.90       0.0       0.0     1.0     0.01
   hyd196        0.0      0.0      1.0    0.95    0.75          0.0          0.0     0.95      0.2    0.90       0.0       0.0     1.0     0.01
   hyd197        0.0      0.0      1.0    0.95    0.75          0.0          0.0     0.95      0.2    0.90       0.0       0.0     1.0     0.01
   hyd198        0.0      0.0      1.0    0.95    0.75          0.0          0.0     0.95      0.2    0.90       0.0       0.0     1.0     0.01
   hyd199        0.0      0.0      1.0    0.95    0.75          0.0          0.0     0.95      0.2    0.90       0.0       0.0     1.0     0.01
   hyd200        0.0      0.0      1.0    0.95    0.75          0.0          0.0     0.95      0.2    0.90       0.0       0.0     1.0     0.01
   hyd201        0.0      0.0      1.0    0.95    0.75          0.0          0.0     0.95      0.2    0.90       0.0       0.0     1.0     0.01
   hyd202        0.0      0.0      1.0    0.95    0.75          0.0          0.0     0.95      0.2    0.90       0.0       0.0     1.0     0.01
   hyd203        0.0      0.0      1.0    0.95    0.75          0.0          0.0     0.95      0.2    0.90       0.0       0.0     1.0     0.01
   hyd204        0.0      0.0      1.0    0.95    0.75          0.0          0.0     0.95      0.2    0.90       0.0       0.0     1.0     0.01
   hyd205        0.0      0.0      1.0    0.95    0.75          0.0          0.0     0.95      0.2    0.90       0.0       0.0     1.0     0.01