landuse.lum: written by SWAT+ editor v3.0.8 on 2025-07-29 21:28 for SWAT+ rev.61.0.1
name                         cal_group          plnt_com                                        mgt               cn2         cons_prac             urban            urb_ro           ov_mann              tile               sep               vfs              grww               bmp  
frse_lum                          null         frse_comm                                       null            wood_f     up_down_slope              null              null      forest_heavy              null              null              null              null              null  
wetw_lum                          null         wetw_comm                                       null            wood_p     up_down_slope              null              null        forest_med              null              null              null              null              null  
rngb_lum                          null         rngb_comm                                       null           brush_f     up_down_slope              null              null     range_20cover              null              null              null              null              null  
frst_lum                          null         frst_comm                                       null            wood_f     up_down_slope              null              null        forest_med              null              null              null              null              null  
wetn_lum                          null         wetn_comm                                       null            wood_p     up_down_slope              null              null        forest_med              null              null              null              null              null  
agrl_lum                          null         agrl_comm                                   agrl_rot        rc_strow_g       cross_slope              null              null      convtill_res              null              null              null              null              null  
