landuse.lum: written by SWAT+ editor v3.0.8 on 2025-10-29 11:31 for SWAT+ rev.61.0.1
name                         cal_group          plnt_com                                        mgt               cn2         cons_prac             urban            urb_ro           ov_mann              tile               sep               vfs              grww               bmp  
frst_lum                          null         frst_comm                                       null            wood_f     up_down_slope              null              null        forest_med              null              null              null              null              null  
wetw_lum                          null         wetw_comm                                       null            wood_p     up_down_slope              null              null        forest_med              null              null              null              null              null  
crdy_lum                          null         crdy_comm                                       null        rc_strow_g     up_down_slope              null              null    convtill_nores              null              null              null              null              null  
wetl_lum                          null         wetl_comm                                       null            wood_p     up_down_slope              null              null        forest_med              null              null              null              null              null  
wetn_lum                          null         wetn_comm                                       null            wood_p     up_down_slope              null              null        forest_med              null              null              null              null              null  
wetf_lum                          null         wetf_comm                                       null            wood_p     up_down_slope              null              null        forest_med              null              null              null              null              null  
