ls_unit.ele: written by SWAT+ editor v3.0.8 on 2025-10-29 11:31 for SWAT+ rev.61.0.1
      id  name                   obj_typ  obj_typ_no      bsn_frac      sub_frac      reg_frac  
       1  hru001                     hru           1     2.6390E-3       1.00000       0.00000  
       2  hru002                     hru           2     4.1330E-3       1.00000       0.00000  
       3  hru003                     hru           3     4.0708E-3       1.00000       0.00000  
       4  hru004                     hru           4     2.3783E-3       1.00000       0.00000  
       5  hru005                     hru           5     1.1632E-3       1.00000       0.00000  
       6  hru006                     hru           6     6.2789E-3       1.00000       0.00000  
       7  hru007                     hru           7     1.2093E-3       1.00000       0.00000  
       8  hru008                     hru           8     1.2030E-3       1.00000       0.00000  
       9  hru009                     hru           9     8.5566E-4       1.00000       0.00000  
      10  hru010                     hru          10     7.9998E-4       1.00000       0.00000  
      11  hru011                     hru          11     2.1271E-3       1.00000       0.00000  
      12  hru012                     hru          12     7.2387E-3       1.00000       0.00000  
      13  hru013                     hru          13     1.8210E-3       1.00000       0.00000  
      14  hru014                     hru          14     1.6033E-3       1.00000       0.00000  
      15  hru015                     hru          15     3.6758E-4       1.00000       0.00000  
      16  hru016                     hru          16     1.1411E-3       1.00000       0.00000  
      17  hru017                     hru          17     1.5671E-3       1.00000       0.00000  
      18  hru018                     hru          18     1.5659E-4       1.00000       0.00000  
      19  hru019                     hru          19     3.0226E-3       1.00000       0.00000  
      20  hru020                     hru          20     1.7908E-3       1.00000       0.00000  
      21  hru021                     hru          21     5.7608E-3       1.00000       0.00000  
      22  hru022                     hru          22     7.8451E-4       1.00000       0.00000  
      23  hru023                     hru          23     4.9981E-4       1.00000       0.00000  
      24  hru024                     hru          24     2.5003E-5       1.00000       0.00000  
      25  hru025                     hru          25     6.5988E-5       1.00000       0.00000  
      26  hru026                     hru          26     1.1043E-3       1.00000       0.00000  
      27  hru027                     hru          27     1.1052E-3       1.00000       0.00000  
      28  hru028                     hru          28     2.7839E-4       1.00000       0.00000  
      29  hru029                     hru          29     4.9971E-3       1.00000       0.00000  
      30  hru030                     hru          30     1.8260E-3       1.00000       0.00000  
      31  hru031                     hru          31     8.7641E-4       1.00000       0.00000  
      32  hru032                     hru          32     2.7317E-3       1.00000       0.00000  
      33  hru033                     hru          33     1.7464E-4       1.00000       0.00000  
      34  hru034                     hru          34     1.5590E-3       1.00000       0.00000  
      35  hru035                     hru          35     2.1579E-3       1.00000       0.00000  
      36  hru036                     hru          36     3.3819E-4       1.00000       0.00000  
      37  hru037                     hru          37     5.6038E-3       1.00000       0.00000  
      38  hru038                     hru          38     2.4041E-3       1.00000       0.00000  
      39  hru039                     hru          39     1.9628E-3       1.00000       0.00000  
      40  hru040                     hru          40     2.3315E-4       1.00000       0.00000  
      41  hru041                     hru          41     3.7067E-4       1.00000       0.00000  
      42  hru042                     hru          42     2.7066E-6       1.00000       0.00000  
      43  hru043                     hru          43     3.5435E-3       1.00000       0.00000  
      44  hru044                     hru          44     2.3263E-3       1.00000       0.00000  
      45  hru045                     hru          45     1.7118E-3       1.00000       0.00000  
      46  hru046                     hru          46     1.4706E-3       1.00000       0.00000  
      47  hru047                     hru          47     2.9334E-3       1.00000       0.00000  
      48  hru048                     hru          48     1.5595E-5       1.00000       0.00000  
      49  hru049                     hru          49     2.4179E-3       1.00000       0.00000  
      50  hru050                     hru          50     3.6323E-3       1.00000       0.00000  
      51  hru051                     hru          51     2.6840E-3       1.00000       0.00000  
      52  hru052                     hru          52     4.7403E-4       1.00000       0.00000  
      53  hru053                     hru          53     1.4070E-3       1.00000       0.00000  
      54  hru054                     hru          54     2.3788E-3       1.00000       0.00000  
      55  hru055                     hru          55     6.7019E-5       1.00000       0.00000  
      56  hru056                     hru          56     2.1779E-3       1.00000       0.00000  
      57  hru057                     hru          57     1.4822E-3       1.00000       0.00000  
      58  hru058                     hru          58     7.2871E-4       1.00000       0.00000  
      59  hru059                     hru          59     2.5777E-7       1.00000       0.00000  
      60  hru060                     hru          60     6.7019E-5       1.00000       0.00000  
      61  hru061                     hru          61     2.2413E-4       1.00000       0.00000  
      62  hru062                     hru          62     1.2379E-3       1.00000       0.00000  
      63  hru063                     hru          63     1.3662E-5       1.00000       0.00000  
      64  hru064                     hru          64     1.1145E-3       1.00000       0.00000  
      65  hru065                     hru          65     4.1896E-3       1.00000       0.00000  
      66  hru066                     hru          66     3.7741E-3       1.00000       0.00000  
      67  hru067                     hru          67     1.5038E-3       1.00000       0.00000  
      68  hru068                     hru          68     1.1419E-4       1.00000       0.00000  
      69  hru069                     hru          69     1.2979E-3       1.00000       0.00000  
      70  hru070                     hru          70     9.3801E-4       1.00000       0.00000  
      71  hru071                     hru          71     7.2046E-5       1.00000       0.00000  
      72  hru072                     hru          72     2.0954E-3       1.00000       0.00000  
      73  hru073                     hru          73     1.0373E-3       1.00000       0.00000  
      74  hru074                     hru          74     1.2994E-3       1.00000       0.00000  
      75  hru075                     hru          75     1.0922E-3       1.00000       0.00000  
      76  hru076                     hru          76     2.1781E-4       1.00000       0.00000  
      77  hru077                     hru          77     9.9073E-4       1.00000       0.00000  
      78  hru078                     hru          78     1.2888E-6       1.00000       0.00000  
      79  hru079                     hru          79     2.1975E-4       1.00000       0.00000  
      80  hru080                     hru          80     1.3932E-4       1.00000       0.00000  
      81  hru081                     hru          81     1.2213E-3       1.00000       0.00000  
      82  hru082                     hru          82     3.0623E-4       1.00000       0.00000  
      83  hru083                     hru          83     1.1039E-3       1.00000       0.00000  
      84  hru084                     hru          84     3.1545E-3       1.00000       0.00000  
      85  hru085                     hru          85     4.9130E-4       1.00000       0.00000  
      86  hru086                     hru          86     4.0083E-3       1.00000       0.00000  
      87  hru087                     hru          87     2.6712E-3       1.00000       0.00000  
      88  hru088                     hru          88     1.1334E-3       1.00000       0.00000  
      89  hru089                     hru          89     8.2356E-5       1.00000       0.00000  
      90  hru090                     hru          90     2.2895E-3       1.00000       0.00000  
      91  hru091                     hru          91     3.1963E-4       1.00000       0.00000  
      92  hru092                     hru          92     1.2379E-3       1.00000       0.00000  
      93  hru093                     hru          93     1.8115E-3       1.00000       0.00000  
      94  hru094                     hru          94     7.5139E-5       1.00000       0.00000  
      95  hru095                     hru          95     4.6914E-4       1.00000       0.00000  
      96  hru096                     hru          96     1.0104E-3       1.00000       0.00000  
      97  hru097                     hru          97     2.0763E-4       1.00000       0.00000  
      98  hru098                     hru          98     4.6398E-6       1.00000       0.00000  
      99  hru099                     hru          99     1.9191E-3       1.00000       0.00000  
     100  hru100                     hru         100     1.8716E-3       1.00000       0.00000  
     101  hru101                     hru         101     2.9643E-6       1.00000       0.00000  
     102  hru102                     hru         102     1.0045E-3       1.00000       0.00000  
     103  hru103                     hru         103     1.5328E-3       1.00000       0.00000  
     104  hru104                     hru         104     9.1765E-4       1.00000       0.00000  
     105  hru105                     hru         105     1.5193E-3       1.00000       0.00000  
     106  hru106                     hru         106     1.9294E-4       1.00000       0.00000  
     107  hru107                     hru         107     1.1387E-3       1.00000       0.00000  
     108  hru108                     hru         108     1.1330E-3       1.00000       0.00000  
     109  hru109                     hru         109     2.7573E-3       1.00000       0.00000  
     110  hru110                     hru         110     1.4651E-3       1.00000       0.00000  
     111  hru111                     hru         111     1.3262E-3       1.00000       0.00000  
     112  hru112                     hru         112     1.2084E-3       1.00000       0.00000  
     113  hru113                     hru         113     2.0499E-3       1.00000       0.00000  
     114  hru114                     hru         114     7.7240E-4       1.00000       0.00000  
     115  hru115                     hru         115     1.9304E-3       1.00000       0.00000  
     116  hru116                     hru         116     1.7962E-3       1.00000       0.00000  
     117  hru117                     hru         117     2.6047E-4       1.00000       0.00000  
     118  hru118                     hru         118     1.7687E-3       1.00000       0.00000  
     119  hru119                     hru         119     8.3774E-6       1.00000       0.00000  
     120  hru120                     hru         120     1.8618E-3       1.00000       0.00000  
     121  hru121                     hru         121     2.1910E-5       1.00000       0.00000  
     122  hru122                     hru         122     1.5029E-3       1.00000       0.00000  
     123  hru123                     hru         123     5.8848E-4       1.00000       0.00000  
     124  hru124                     hru         124     1.9358E-3       1.00000       0.00000  
     125  hru125                     hru         125     9.5773E-4       1.00000       0.00000  
     126  hru126                     hru         126     2.1674E-3       1.00000       0.00000  
     127  hru127                     hru         127     1.2207E-3       1.00000       0.00000  
     128  hru128                     hru         128     3.6216E-5       1.00000       0.00000  
     129  hru129                     hru         129     4.9723E-4       1.00000       0.00000  
     130  hru130                     hru         130     2.0231E-3       1.00000       0.00000  
     131  hru131                     hru         131     1.2512E-3       1.00000       0.00000  
     132  hru132                     hru         132     8.1313E-4       1.00000       0.00000  
     133  hru133                     hru         133     3.6590E-4       1.00000       0.00000  
     134  hru134                     hru         134     3.1834E-5       1.00000       0.00000  
     135  hru135                     hru         135     3.8665E-7       1.00000       0.00000  
     136  hru136                     hru         136     1.1499E-3       1.00000       0.00000  
     137  hru137                     hru         137     6.9803E-4       1.00000       0.00000  
     138  hru138                     hru         138     1.4704E-3       1.00000       0.00000  
     139  hru139                     hru         139     1.4796E-4       1.00000       0.00000  
     140  hru140                     hru         140     1.6364E-3       1.00000       0.00000  
     141  hru141                     hru         141     1.4065E-3       1.00000       0.00000  
     142  hru142                     hru         142     1.2256E-3       1.00000       0.00000  
     143  hru143                     hru         143     3.4876E-3       1.00000       0.00000  
     144  hru144                     hru         144     1.5400E-3       1.00000       0.00000  
     145  hru145                     hru         145     1.0723E-3       1.00000       0.00000  
     146  hru146                     hru         146     1.1741E-4       1.00000       0.00000  
     147  hru147                     hru         147     1.0910E-3       1.00000       0.00000  
     148  hru148                     hru         148     5.3744E-5       1.00000       0.00000  
     149  hru149                     hru         149     2.2668E-3       1.00000       0.00000  
     150  hru150                     hru         150     1.4230E-3       1.00000       0.00000  
     151  hru151                     hru         151     1.1108E-3       1.00000       0.00000  
     152  hru152                     hru         152     1.8933E-3       1.00000       0.00000  
     153  hru153                     hru         153     5.7469E-4       1.00000       0.00000  
     154  hru154                     hru         154     8.0037E-5       1.00000       0.00000  
     155  hru155                     hru         155     2.6808E-5       1.00000       0.00000  
     156  hru156                     hru         156     1.7721E-4       1.00000       0.00000  
     157  hru157                     hru         157     5.7528E-3       1.00000       0.00000  
     158  hru158                     hru         158     1.4177E-3       1.00000       0.00000  
     159  hru159                     hru         159     5.9450E-3       1.00000       0.00000  
     160  hru160                     hru         160     1.8662E-3       1.00000       0.00000  
     161  hru161                     hru         161     2.7625E-3       1.00000       0.00000  
     162  hru162                     hru         162     2.4663E-3       1.00000       0.00000  
     163  hru163                     hru         163     1.8120E-3       1.00000       0.00000  
     164  hru164                     hru         164     2.4784E-4       1.00000       0.00000  
     165  hru165                     hru         165     5.4917E-4       1.00000       0.00000  
     166  hru166                     hru         166     4.8563E-4       1.00000       0.00000  
     167  hru167                     hru         167     1.1084E-4       1.00000       0.00000  
     168  hru168                     hru         168     2.3939E-3       1.00000       0.00000  
     169  hru169                     hru         169     6.5859E-5       1.00000       0.00000  
     170  hru170                     hru         170     1.1108E-3       1.00000       0.00000  
     171  hru171                     hru         171     1.8229E-3       1.00000       0.00000  
     172  hru172                     hru         172     1.0659E-4       1.00000       0.00000  
     173  hru173                     hru         173     1.1020E-4       1.00000       0.00000  
     174  hru174                     hru         174     2.0393E-3       1.00000       0.00000  
     175  hru175                     hru         175     2.2212E-3       1.00000       0.00000  
     176  hru176                     hru         176     1.1101E-3       1.00000       0.00000  
     177  hru177                     hru         177     1.5960E-3       1.00000       0.00000  
     178  hru178                     hru         178     1.3307E-3       1.00000       0.00000  
     179  hru179                     hru         179     2.3186E-4       1.00000       0.00000  
     180  hru180                     hru         180     1.1641E-3       1.00000       0.00000  
     181  hru181                     hru         181     3.8021E-5       1.00000       0.00000  
     182  hru182                     hru         182     1.8482E-4       1.00000       0.00000  
     183  hru183                     hru         183     1.0955E-5       1.00000       0.00000  
     184  hru184                     hru         184     9.6611E-4       1.00000       0.00000  
     185  hru185                     hru         185     1.2182E-3       1.00000       0.00000  
     186  hru186                     hru         186     1.1495E-3       1.00000       0.00000  
     187  hru187                     hru         187     1.7242E-3       1.00000       0.00000  
     188  hru188                     hru         188     2.4667E-3       1.00000       0.00000  
     189  hru189                     hru         189     1.5827E-4       1.00000       0.00000  
     190  hru190                     hru         190     2.4514E-3       1.00000       0.00000  
     191  hru191                     hru         191     1.4177E-6       1.00000       0.00000  
     192  hru192                     hru         192     3.5185E-5       1.00000       0.00000  
     193  hru193                     hru         193     3.3664E-4       1.00000       0.00000  
     194  hru194                     hru         194     5.3448E-4       1.00000       0.00000  
     195  hru195                     hru         195     5.1167E-5       1.00000       0.00000  
     196  hru196                     hru         196     1.6104E-3       1.00000       0.00000  
     197  hru197                     hru         197     3.5056E-5       1.00000       0.00000  
     198  hru198                     hru         198     2.5197E-3       1.00000       0.00000  
     199  hru199                     hru         199     2.1410E-3       1.00000       0.00000  
     200  hru200                     hru         200     1.6832E-3       1.00000       0.00000  
     201  hru201                     hru         201     2.3751E-3       1.00000       0.00000  
     202  hru202                     hru         202     5.1076E-4       1.00000       0.00000  
     203  hru203                     hru         203     3.1484E-3       1.00000       0.00000  
     204  hru204                     hru         204     1.8044E-6       1.00000       0.00000  
     205  hru205                     hru         205     1.1600E-6       1.00000       0.00000  
     206  hru206                     hru         206     1.1389E-3       1.00000       0.00000  
     207  hru207                     hru         207     1.4297E-3       1.00000       0.00000  
     208  hru208                     hru         208     1.4675E-3       1.00000       0.00000  
     209  hru209                     hru         209     5.0265E-6       1.00000       0.00000  
     210  hru210                     hru         210     2.6330E-3       1.00000       0.00000  
     211  hru211                     hru         211     2.1536E-4       1.00000       0.00000  
     212  hru212                     hru         212     1.2056E-3       1.00000       0.00000  
     213  hru213                     hru         213     1.0949E-3       1.00000       0.00000  
     214  hru214                     hru         214     2.5132E-5       1.00000       0.00000  
     215  hru215                     hru         215     2.6279E-4       1.00000       0.00000  
     216  hru216                     hru         216     3.3071E-4       1.00000       0.00000  
     217  hru217                     hru         217     4.6278E-3       1.00000       0.00000  
     218  hru218                     hru         218     2.9460E-3       1.00000       0.00000  
     219  hru219                     hru         219     1.5349E-3       1.00000       0.00000  
     220  hru220                     hru         220     5.6966E-5       1.00000       0.00000  
     221  hru221                     hru         221     4.2138E-3       1.00000       0.00000  
     222  hru222                     hru         222     1.2186E-3       1.00000       0.00000  
     223  hru223                     hru         223     3.4670E-5       1.00000       0.00000  
     224  hru224                     hru         224     1.9111E-3       1.00000       0.00000  
     225  hru225                     hru         225     2.1823E-3       1.00000       0.00000  
     226  hru226                     hru         226     4.9436E-3       1.00000       0.00000  
     227  hru227                     hru         227     3.2542E-3       1.00000       0.00000  
     228  hru228                     hru         228     1.1780E-3       1.00000       0.00000  
     229  hru229                     hru         229     1.4633E-3       1.00000       0.00000  
     230  hru230                     hru         230     1.6922E-4       1.00000       0.00000  
     231  hru231                     hru         231     8.5707E-5       1.00000       0.00000  
     232  hru232                     hru         232     4.5139E-3       1.00000       0.00000  
     233  hru233                     hru         233     1.0152E-3       1.00000       0.00000  
     234  hru234                     hru         234     8.8930E-5       1.00000       0.00000  
     235  hru235                     hru         235     2.7078E-3       1.00000       0.00000  
     236  hru236                     hru         236     1.0598E-3       1.00000       0.00000  
     237  hru237                     hru         237     1.2257E-4       1.00000       0.00000  
     238  hru238                     hru         238     2.2004E-3       1.00000       0.00000  
     239  hru239                     hru         239     2.4155E-3       1.00000       0.00000  
     240  hru240                     hru         240     2.3419E-3       1.00000       0.00000  
     241  hru241                     hru         241     1.3611E-3       1.00000       0.00000  
     242  hru242                     hru         242     3.7247E-5       1.00000       0.00000  
     243  hru243                     hru         243     1.3218E-3       1.00000       0.00000  
     244  hru244                     hru         244     1.9269E-3       1.00000       0.00000  
     245  hru245                     hru         245     7.6080E-4       1.00000       0.00000  
     246  hru246                     hru         246     1.8491E-3       1.00000       0.00000  
     247  hru247                     hru         247     1.0054E-3       1.00000       0.00000  
     248  hru248                     hru         248     1.6559E-3       1.00000       0.00000  
     249  hru249                     hru         249     1.8602E-3       1.00000       0.00000  
     250  hru250                     hru         250     3.6749E-3       1.00000       0.00000  
     251  hru251                     hru         251     4.4541E-3       1.00000       0.00000  
     252  hru252                     hru         252     2.4671E-3       1.00000       0.00000  
     253  hru253                     hru         253     2.1466E-3       1.00000       0.00000  
     254  hru254                     hru         254     7.3464E-6       1.00000       0.00000  
     255  hru255                     hru         255     1.9977E-5       1.00000       0.00000  
     256  hru256                     hru         256     1.0749E-3       1.00000       0.00000  
     257  hru257                     hru         257     2.1060E-4       1.00000       0.00000  
     258  hru258                     hru         258     2.3095E-3       1.00000       0.00000  
     259  hru259                     hru         259     2.4310E-3       1.00000       0.00000  
     260  hru260                     hru         260     2.0585E-3       1.00000       0.00000  
     261  hru261                     hru         261     1.4436E-3       1.00000       0.00000  
     262  hru262                     hru         262     4.2532E-6       1.00000       0.00000  
     263  hru263                     hru         263     3.4545E-3       1.00000       0.00000  
     264  hru264                     hru         264     1.7902E-4       1.00000       0.00000  
     265  hru265                     hru         265     2.0351E-4       1.00000       0.00000  
     266  hru266                     hru         266     1.2888E-6       1.00000       0.00000  
     267  hru267                     hru         267     1.1665E-3       1.00000       0.00000  
     268  hru268                     hru         268     1.5466E-6       1.00000       0.00000  
     269  hru269                     hru         269     1.0826E-5       1.00000       0.00000  
     270  hru270                     hru         270     2.1910E-6       1.00000       0.00000  
     271  hru271                     hru         271     1.7680E-3       1.00000       0.00000  
     272  hru272                     hru         272     2.3444E-4       1.00000       0.00000  
     273  hru273                     hru         273     2.9566E-3       1.00000       0.00000  
     274  hru274                     hru         274     8.6159E-4       1.00000       0.00000  
     275  hru275                     hru         275     6.4442E-7       1.00000       0.00000  
     276  hru276                     hru         276     1.0102E-3       1.00000       0.00000  
     277  hru277                     hru         277     1.0620E-3       1.00000       0.00000  
     278  hru278                     hru         278     3.9215E-3       1.00000       0.00000  
     279  hru279                     hru         279     6.6388E-4       1.00000       0.00000  
     280  hru280                     hru         280     2.5777E-5       1.00000       0.00000  
     281  hru281                     hru         281     2.4083E-3       1.00000       0.00000  
     282  hru282                     hru         282     9.2023E-4       1.00000       0.00000  
     283  hru283                     hru         283     1.6144E-3       1.00000       0.00000  
     284  hru284                     hru         284     5.3628E-4       1.00000       0.00000  
     285  hru285                     hru         285     9.6482E-4       1.00000       0.00000  
     286  hru286                     hru         286     1.7953E-4       1.00000       0.00000  
     287  hru287                     hru         287     2.5315E-3       1.00000       0.00000  
     288  hru288                     hru         288     7.6170E-5       1.00000       0.00000  
     289  hru289                     hru         289     2.4488E-6       1.00000       0.00000  
     290  hru290                     hru         290     3.4154E-5       1.00000       0.00000  
     291  hru291                     hru         291     1.6724E-3       1.00000       0.00000  
     292  hru292                     hru         292     1.9075E-3       1.00000       0.00000  
     293  hru293                     hru         293     1.0311E-4       1.00000       0.00000  
     294  hru294                     hru         294     3.2221E-6       1.00000       0.00000  
     295  hru295                     hru         295     4.1977E-4       1.00000       0.00000  
     296  hru296                     hru         296     3.0893E-4       1.00000       0.00000  
     297  hru297                     hru         297     7.5899E-4       1.00000       0.00000  
     298  hru298                     hru         298     3.9954E-6       1.00000       0.00000  
     299  hru299                     hru         299     2.1518E-3       1.00000       0.00000  
     300  hru300                     hru         300     1.8041E-3       1.00000       0.00000  
     301  hru301                     hru         301     4.1152E-4       1.00000       0.00000  
     302  hru302                     hru         302     4.5882E-5       1.00000       0.00000  
     303  hru303                     hru         303     1.5466E-6       1.00000       0.00000  
     304  hru304                     hru         304     2.6113E-3       1.00000       0.00000  