ls_unit.def: written by SWAT+ editor v3.0.8 on 2025-10-29 11:31 for SWAT+ rev.61.0.1
771
      id              name          area  elem_tot  elements  
       1           rtu0010     422.50240         1        11  
       2           rtu0020     472.39680         1         4  
       3           rtu0030     361.70240         1        13  
       4           rtu0040     240.20480         1         7  
       5           rtu0050     820.94080         1         2  
       6           rtu0060     600.37120         1        19  
       7           rtu0070     311.27040         1        17  
       8           rtu0080     355.71200         1        20  
       9           rtu0090     169.95840         1         9  
      10           rtu0100      31.10400         1        18  
      11           rtu0110     524.18560         1         1  
      12           rtu0120     158.89920         1        10  
      13           rtu0130     231.04000         1         5  
      14           rtu0140     238.95040         1         8  
      15           rtu0150     432.58880         1        56  
      16           rtu0160    1247.18080         1         6  
      17           rtu0170     226.66240         1        16  
      18           rtu0180     582.65600         1        47  
      19           rtu0190     245.88800         1        62  
      20           rtu0200     808.57600         1         3  
      21           rtu0210     221.36320         1        64  
      22           rtu0220       2.71360         1        63  
      23           rtu0230     294.40000         1        57  
      24           rtu0240      44.51840         1        61  
      25           rtu0250      13.31200         1        60  
      26           rtu0260     462.08000         1        44  
      27           rtu0270     832.17920         1        65  
      28           rtu0280     721.48480         1        50  
      29           rtu0290     340.01920         1        45  
      30           rtu0300     279.47520         1        53  
      31           rtu0310     279.37280         1       141  
      32           rtu0320     472.49920         1        54  
      33           rtu0330       0.05120         1        59  
      34           rtu0340     325.04320         1       140  
      35           rtu0350     749.64480         1        66  
      36           rtu0360      73.01120         1        15  
      37           rtu0370    1437.82400         1        12  
      38           rtu0380     480.25600         1        49  
      39           rtu0390     692.73600         1       143  
      40           rtu0400      23.32160         1       146  
      41           rtu0410     305.89440         1       144  
      42           rtu0420      10.67520         1       148  
      43           rtu0430     212.99200         1       145  
      44           rtu0440     292.09600         1        46  
      45           rtu0450       3.09760         1        48  
      46           rtu0460     533.12000         1        51  
      47           rtu0470     454.75840         1        90  
      48           rtu0480     257.79200         1        69  
      49           rtu0490    1142.68160         1       157  
      50           rtu0500    1144.26880         1        21  
      51           rtu0510     225.12640         1        88  
      52           rtu0520     242.58560         1        81  
      53           rtu0530     219.26400         1        83  
      54           rtu0540     206.02880         1        73  
      55           rtu0550      14.31040         1        71  
      56           rtu0560      22.68160         1        68  
      57           rtu0570     371.76320         1       100  
      58           rtu0580     405.06880         1       174  
      59           rtu0590      13.31200         1        55  
      60           rtu0600      94.15680         1        52  
      61           rtu0610     450.25280         1       149  
      62           rtu0620     144.74240         1        58  
      63           rtu0630     186.31680         1        70  
      64           rtu0640       0.25600         1        78  
      65           rtu0650      43.64800         1        79  
      66           rtu0660      27.67360         1        80  
      67           rtu0670      60.82560         1        82  
      68           rtu0680     200.70400         1        96  
      69           rtu0690     318.46400         1        14  
      70           rtu0700     231.21920         1       180  
      71           rtu0710     281.60000         1       158  
      72           rtu0720     486.91200         1       190  
      73           rtu0730     342.47680         1       187  
      74           rtu0740     298.70080         1        67  
      75           rtu0750     220.49280         1       176  
      76           rtu0760     416.20480         1        72  
      77           rtu0770      46.05440         1       179  
      78           rtu0780     381.18400         1        99  
      79           rtu0790     219.52000         1        27  
      80           rtu0800      99.27680         1        23  
      81           rtu0810     220.64640         1       151  
      82           rtu0820    1180.85120         1       159  
      83           rtu0830     500.48000         1       198  
      84           rtu0840     264.32000         1       178  
      85           rtu0850     228.32640         1       186  
      86           rtu0860     191.89760         1       184  
      87           rtu0870     243.43040         1       142  
      88           rtu0880     376.06400         1       152  
      89           rtu0890     441.19040         1       175  
      90           rtu0900      97.58720         1        85  
      91           rtu0910      16.35840         1        89  
      92           rtu0920     530.58560         1        87  
      93           rtu0930     219.34080         1        26  
      94           rtu0940     155.82720         1        22  
      95           rtu0950     489.95840         1       188  
      96           rtu0960     245.88800         1        92  
      97           rtu0970      13.10720         1        25  
      98           rtu0980       4.96640         1        24  
      99           rtu0990      55.29600         1        28  
     100           rtu1000     174.08000         1        31  
     101           rtu1010     216.70400         1       147  
     102           rtu1020     258.09920         1        74  
     103           rtu1030     425.26720         1       199  
     104           rtu1040     626.58560         1        84  
     105           rtu1050      43.26400         1        76  
     106           rtu1060     992.56320         1        29  
     107           rtu1070     106.16320         1       194  
     108           rtu1080     241.97120         1       185  
     109           rtu1090     317.00480         1       177  
     110           rtu1100     199.52640         1       102  
     111           rtu1110       0.58880         1       101  
     112           rtu1120      93.18400         1        95  
     113           rtu1130     216.93440         1        75  
     114           rtu1140     196.78720         1        77  
     115           rtu1150      15.89760         1       154  
     116           rtu1160       5.32480         1       155  
     117           rtu1170     114.15040         1       153  
     118           rtu1180       2.17600         1       183  
     119           rtu1190      63.48800         1        91  
     120           rtu1200     319.87200         1       196  
     121           rtu1210       7.55200         1       181  
     122           rtu1220       6.96320         1       197  
     123           rtu1230      10.16320         1       195  
     124           rtu1240      66.86720         1       193  
     125           rtu1250      36.71040         1       182  
     126           rtu1260      14.92480         1        94  
     127           rtu1270       0.92160         1        98  
     128           rtu1280      41.24160         1        97  
     129           rtu1290     585.16480         1       218  
     130           rtu1300      11.31520         1       220  
     131           rtu1310     836.99200         1       221  
     132           rtu1320     282.64960         1       150  
     133           rtu1330       6.98880         1       192  
     134           rtu1340       0.28160         1       191  
     135           rtu1350      31.43680         1       189  
     136           rtu1360     240.02560         1       112  
     137           rtu1370     489.88160         1       162  
     138           rtu1380     359.80800         1        93  
     139           rtu1390     471.75680         1       201  
     140           rtu1400     226.17600         1       107  
     141           rtu1410      35.20000         1       156  
     142           rtu1420     796.16000         1        86  
     143           rtu1430     884.71040         1       251  
     144           rtu1440     182.27200         1       104  
     145           rtu1450     475.49440         1       168  
     146           rtu1460     210.94400         1       277  
     147           rtu1470     171.13600         1       274  
     148           rtu1480     458.72640         1       258  
     149           rtu1490     542.59200         1        32  
     150           rtu1500     919.21920         1       217  
     151           rtu1510      65.68960         1       216  
     152           rtu1520      52.19840         1       215  
     153           rtu1530     428.62080         1        35  
     154           rtu1540     370.68800         1       160  
     155           rtu1550     389.86240         1        39  
     156           rtu1560     226.22720         1       206  
     157           rtu1570       0.23040         1       205  
     158           rtu1580       0.35840         1       204  
     159           rtu1590     334.33600         1       200  
     160           rtu1600      13.08160         1       169  
     161           rtu1610     301.77280         1       105  
     162           rtu1620     767.97440         1       305  
     163           rtu1630      22.01600         1       167  
     164           rtu1640     220.64640         1       170  
     165           rtu1650     686.15680         1       263  
     166           rtu1660     548.71040         1       161  
     167           rtu1670     263.83360         1       316  
     168           rtu1680      49.22880         1       164  
     169           rtu1690     272.69120         1       317  
     170           rtu1700     270.89920         1       329  
     171           rtu1710      70.93760         1       331  
     172           rtu1720     435.78880         1       330  
     173           rtu1730     101.45280         1       202  
     174           rtu1740      96.46080         1       166  
     175           rtu1750      67.17440         1        36  
     176           rtu1760     362.70080         1        30  
     177           rtu1770      34.68800         1        33  
     178           rtu1780     309.65760         1        34  
     179           rtu1790     547.68640         1       109  
     180           rtu1800     625.35680         1       203  
     181           rtu1810     536.03840         1       307  
     182           rtu1820     580.65920         1       308  
     183           rtu1830     477.51680         1        38  
     184           rtu1840       0.53760         1        42  
     185           rtu1850      46.31040         1        40  
     186           rtu1860     263.42400         1       111  
     187           rtu1870     466.09920         1       318  
     188           rtu1880     304.87040         1       219  
     189           rtu1890     242.04800         1       222  
     190           rtu1900     297.80480         1       322  
     191           rtu1910     703.84640         1        43  
     192           rtu1920      38.32320         1       106  
     193           rtu1930     109.08160         1       165  
     194           rtu1940     291.02080         1       110  
     195           rtu1950     300.64640         1       332  
     196           rtu1960       6.88640         1       223  
     197           rtu1970     383.43680         1       115  
     198           rtu1980       1.66400         1       119  
     199           rtu1990     407.16800         1       113  
     200           rtu2000     153.03680         1       306  
     201           rtu2010      41.83040         1       257  
     202           rtu2020     379.59680         1       224  
     203           rtu2030     359.91040         1       163  
     204           rtu2040     812.08320         1       333  
     205           rtu2050     304.46080         1       103  
     206           rtu2060     207.12960         1       320  
     207           rtu2070     237.38880         1       319  
     208           rtu2080     328.90880         1       248  
     209           rtu2090     239.46240         1       212  
     210           rtu2100     362.08640         1       171  
     211           rtu2110     269.90080         1       321  
     212           rtu2120     291.48160         1       208  
     213           rtu2130     433.45920         1       225  
     214           rtu2140      42.77760         1       211  
     215           rtu2150     225.04960         1       108  
     216           rtu2160     283.98080         1       207  
     217           rtu2170     646.37440         1       227  
     218           rtu2180      73.62560         1        41  
     219           rtu2190      21.17120         1       172  
     220           rtu2200     518.68160         1       304  
     221           rtu2210       0.30720         1       303  
     222           rtu2220     239.15520         1       314  
     223           rtu2230       0.99840         1       209  
     224           rtu2240     522.98240         1       210  
     225           rtu2250     426.36800         1       253  
     226           rtu2260      21.88800         1       173  
     227           rtu2270     153.42080         1       114  
     228           rtu2280     153.93280         1       310  
     229           rtu2290     351.30880         1       118  
     230           rtu2300       1.45920         1       254  
     231           rtu2310       3.96800         1       255  
     232           rtu2320     151.11680         1       245  
     233           rtu2330     382.13120         1       324  
     234           rtu2340    1113.08800         1        37  
     235           rtu2350     378.29120         1       334  
     236           rtu2360     981.93920         1       226  
     237           rtu2370       4.14720         1       313  
     238           rtu2380     208.66560         1       315  
     239           rtu2390     411.28960         1       309  
     240           rtu2400     233.98400         1       228  
     241           rtu2410     533.22240         1       363  
     242           rtu2420     808.90880         1       373  
     243           rtu2430      51.73760         1       117  
     244           rtu2440     298.52160         1       122  
     245           rtu2450       7.19360         1       128  
     246           rtu2460     430.51520         1       126  
     247           rtu2470      43.39200         1       336  
     248           rtu2480     332.18560         1       291  
     249           rtu2490     359.96160         1       323  
     250           rtu2500       6.27200         1       325  
     251           rtu2510     138.06080         1       327  
     252           rtu2520     290.66240         1       229  
     253           rtu2530     262.55360         1       243  
     254           rtu2540     206.15680         1       337  
     255           rtu2550       9.11360         1       302  
     256           rtu2560      61.36320         1       296  
     257           rtu2570      33.61280         1       230  
     258           rtu2580     514.63680         1       335  
     259           rtu2590     356.78720         1       116  
     260           rtu2600       4.35200         1       121  
     261           rtu2610     116.88960         1       123  
     262           rtu2620     573.33760         1       380  
     263           rtu2630     749.84960         1       362  
     264           rtu2640     320.66560         1       283  
     265           rtu2650      17.02400         1       231  
     266           rtu2660      17.66400         1       234  
     267           rtu2670     201.65120         1       233  
     268           rtu2680     465.94560         1       375  
     269           rtu2690     382.74560         1       244  
     270           rtu2700     568.78080         1       360  
     271           rtu2710     345.11360         1       374  
     272           rtu2720     369.81760         1       120  
     273           rtu2730     587.26400         1       273  
     274           rtu2740      81.74080         1       301  
     275           rtu2750     150.75840         1       297  
     276           rtu2760     502.83520         1       287  
     277           rtu2770     266.75200         1       312  
     278           rtu2780     778.93120         1       278  
     279           rtu2790     319.30880         1       386  
     280           rtu2800      80.38400         1       311  
     281           rtu2810     217.47200         1       213  
     282           rtu2820     384.51200         1       124  
     283           rtu2830      98.76480         1       129  
     284           rtu2840       6.32320         1       134  
     285           rtu2850     342.09280         1       347  
     286           rtu2860       5.93920         1       350  
     287           rtu2870     562.96960         1       345  
     288           rtu2880       4.99200         1       214  
     289           rtu2890     151.09120         1       366  
     290           rtu2900      24.78080         1       367  
     291           rtu2910     134.52800         1       368  
     292           rtu2920      65.43360         1       339  
     293           rtu2930     375.39840         1       338  
     294           rtu2940     597.19680         1       364  
     295           rtu2950     401.84320         1       130  
     296           rtu2960      20.88960         1       384  
     297           rtu2970      44.18560         1       377  
     298           rtu2980     160.05120         1       382  
     299           rtu2990       0.64000         1       385  
     300           rtu3000     217.16480         1       381  
     301           rtu3010     212.19840         1       357  
     302           rtu3020     261.45280         1       355  
     303           rtu3030     190.23360         1       125  
     304           rtu3040     228.40320         1       136  
     305           rtu3050     723.91680         1       401  
     306           rtu3060     537.85600         1       235  
     307           rtu3070      46.69440         1       359  
     308           rtu3080     408.88320         1       260  
     309           rtu3090      66.73920         1       340  
     310           rtu3100       0.38400         1       342  
     311           rtu3110     237.00480         1       343  
     312           rtu3120     896.58880         1       232  
     313           rtu3130       0.07680         1       135  
     314           rtu3140      72.67840         1       133  
     315           rtu3150     248.52480         1       131  
     316           rtu3160    1084.28800         1       438  
     317           rtu3170      67.30240         1       446  
     318           rtu3180      38.88640         1       442  
     319           rtu3190     273.94560         1       376  
     320           rtu3200     242.45760         1       127  
     321           rtu3210     285.82400         1       379  
     322           rtu3220     260.19840         1       356  
     323           rtu3230     199.70560         1       247  
     324           rtu3240     369.48480         1       249  
     325           rtu3250     647.37280         1       393  
     326           rtu3260     303.12960         1       390  
     327           rtu3270      45.05600         1       399  
     328           rtu3280     156.49280         1       392  
     329           rtu3290      17.17760         1       394  
     330           rtu3300     414.64320         1       395  
     331           rtu3310     317.79840         1       419  
     332           rtu3320     105.08800         1       361  
     333           rtu3330     231.60320         1       418  
     334           rtu3340     199.32160         1       326  
     335           rtu3350     258.61120         1       328  
     336           rtu3360     188.72320         1       369  
     337           rtu3370     195.86560         1       371  
     338           rtu3380    1209.16480         1       370  
     339           rtu3390     230.19520         1       414  
     340           rtu3400     212.99200         1       378  
     341           rtu3410     292.07040         1       138  
     342           rtu3420     111.33440         1       383  
     343           rtu3430     367.28320         1       246  
     344           rtu3440     205.49120         1       341  
     345           rtu3450     559.71840         1       358  
     346           rtu3460     859.03360         1       417  
     347           rtu3470     318.25920         1       412  
     348           rtu3480      42.67520         1       346  
     349           rtu3490     351.18080         1       271  
     350           rtu3500       0.30720         1       268  
     351           rtu3510       0.84480         1       262  
     352           rtu3520     161.51040         1       132  
     353           rtu3530      29.38880         1       139  
     354           rtu3540     358.34880         1       300  
     355           rtu3550     717.08160         1       420  
     356           rtu3560       0.48640         1       289  
     357           rtu3570       6.78400         1       290  
     358           rtu3580      20.48000         1       293  
     359           rtu3590     231.06560         1       406  
     360           rtu3600      43.77600         1       408  
     361           rtu3610     427.41760         1       299  
     362           rtu3620     211.50720         1       348  
     363           rtu3630     231.57760         1       409  
     364           rtu3640     490.03520         1       252  
     365           rtu3650     203.13600         1       388  
     366           rtu3660      12.72320         1       387  
     367           rtu3670      78.61760         1       389  
     368           rtu3680      83.37920         1       295  
     369           rtu3690       0.79360         1       298  
     370           rtu3700     191.64160         1       285  
     371           rtu3710     531.84000         1       421  
     372           rtu3720     594.58560         1       416  
     373           rtu3730     378.88000         1       292  
     374           rtu3740     138.64960         1       137  
     375           rtu3750     117.42720         1       391  
     376           rtu3760      77.18400         1       397  
     377           rtu3770      24.34560         1       237  
     378           rtu3780     201.60000         1       425  
     379           rtu3790     177.71520         1       422  
     380           rtu3800     467.78880         1       451  
     381           rtu3810     210.50880         1       236  
     382           rtu3820     230.60480         1       407  
     383           rtu3830      46.74560         1       410  
     384           rtu3840      19.14880         1       413  
     385           rtu3850       7.57760         1       423  
     386           rtu3860     454.22080         1       460  
     387           rtu3870     479.79520         1       239  
     388           rtu3880     465.17760         1       240  
     389           rtu3890     270.36160         1       241  
     390           rtu3900     261.73440         1       403  
     391           rtu3910     365.46560         1       424  
     392           rtu3920     818.48320         1       447  
     393           rtu3930      60.92800         1       448  
     394           rtu3940     387.73760         1       405  
     395           rtu3950     999.62880         1       426  
     396           rtu3960     270.84800         1       354  
     397           rtu3970     226.71360         1       351  
     398           rtu3980     562.32960         1       601  
     399           rtu3990       4.68480         1       604  
     400           rtu4000     313.44640         1       603  
     401           rtu4010     478.36160         1       281  
     402           rtu4020     729.93280         1       250  
     403           rtu4030     494.10560         1       428  
     404           rtu4040     239.94880         1       344  
     405           rtu4050      35.66080         1       286  
     406           rtu4060      11.57120         1       352  
     407           rtu4070     200.65280         1       276  
     408           rtu4080       0.12800         1       275  
     409           rtu4090      46.56640         1       272  
     410           rtu4100       0.43520         1       270  
     411           rtu4110       0.25600         1       266  
     412           rtu4120     530.66240         1       468  
     413           rtu4130       1.89440         1       396  
     414           rtu4140       0.64000         1       294  
     415           rtu4150      15.12960         1       288  
     416           rtu4160     182.78400         1       282  
     417           rtu4170     106.52160         1       284  
     418           rtu4180     131.86560         1       279  
     419           rtu4190       0.25600         1       398  
     420           rtu4200     133.70880         1       400  
     421           rtu4210     266.98240         1       402  
     422           rtu4220     224.61440         1       434  
     423           rtu4230     140.00640         1       404  
     424           rtu4240     204.13440         1       462  
     425           rtu4250       4.55680         1       353  
     426           rtu4260     231.70560         1       267  
     427           rtu4270     542.33600         1       461  
     428           rtu4280     544.76800         1       349  
     429           rtu4290     321.79200         1       479  
     430           rtu4300     247.42400         1       477  
     431           rtu4310     327.44960         1       411  
     432           rtu4320      82.15040         1       475  
     433           rtu4330      19.27680         1       476  
     434           rtu4340     257.79200         1       474  
     435           rtu4350      40.42240         1       265  
     436           rtu4360     418.81600         1       429  
     437           rtu4370      25.13920         1       452  
     438           rtu4380     482.86720         1       259  
     439           rtu4390    1002.88000         1       463  
     440           rtu4400     584.57600         1       372  
     441           rtu4410     450.15040         1       484  
     442           rtu4420     238.66880         1       478  
     443           rtu4430     231.65440         1       415  
     444           rtu4440       5.12000         1       280  
     445           rtu4450     177.43360         1       453  
     446           rtu4460      83.43040         1       454  
     447           rtu4470     509.13280         1       455  
     448           rtu4480     202.47040         1       443  
     449           rtu4490       3.32800         1       449  
     450           rtu4500     191.89760         1       480  
     451           rtu4510     760.21760         1       570  
     452           rtu4520       3.04640         1       456  
     453           rtu4530      28.67200         1       457  
     454           rtu4540     135.29600         1       458  
     455           rtu4550       4.58240         1       445  
     456           rtu4560     143.20640         1       433  
     457           rtu4570     311.21920         1       572  
     458           rtu4580      13.20960         1       578  
     459           rtu4590      20.14720         1       574  
     460           rtu4600     241.99680         1       471  
     461           rtu4610     420.35200         1       467  
     462           rtu4620     200.88320         1       365  
     463           rtu4630     703.61600         1       605  
     464           rtu4640     267.46880         1       493  
     465           rtu4650     213.50400         1       256  
     466           rtu4660      35.55840         1       264  