management.sch: written by SWAT+ editor v3.0.8 on 2025-07-29 21:28 for SWAT+ rev.61.0.1
name                                       numb_ops  numb_auto            op_typ       mon       day        hu_sch          op_data1          op_data2      op_data3  
agrl_rot                          0          1  
                                                   pl_hv_summer1   agrl  
