nutrients.sol: written by SWAT+ editor v3.0.8 on 2025-10-29 11:31 for SWAT+ rev.61.0.1
name                    exp_co         lab_p       nitrate    fr_hum_act       hum_c_n       hum_c_p        inorgp    watersol_p         h3a_p     mehlich_p  bray_strong_p  description
soilnut1               0.00050       5.00000       7.00000       0.02000      10.00000      80.00000       3.50000       0.15000       0.25000       1.20000       0.85000  
