object.cnt: written by SWAT+ editor v3.0.8 on 2025-10-29 11:31 for SWAT+ rev.61.0.1
name                   ls_area      tot_area       obj       hru      lhru       rtu      gwfl       aqu       cha       res       rec      exco       dlr       can       pmp       out      lcha     aqu2d       hrd       wro  
Oulanka_with_lake  198629.22240  198629.22240      2343       771         0       771         0        52         0       102         0         0         0         0         0         0       647         0         0         0  
