object.cnt: written by SWAT+ editor v3.0.8 on 2025-07-29 21:28 for SWAT+ rev.61.0.1
name                   ls_area      tot_area       obj       hru      lhru       rtu      gwfl       aqu       cha       res       rec      exco       dlr       can       pmp       out      lcha     aqu2d       hrd       wro  
Oulanka_absent_lake_climate  198629.22240  198629.22240      1735       561         0       561         0        52         0         0         0         0         0         0         0         0       561         0         0         0  
