pcp.cli: Precipitation file names - file written by SWAT+ editor 2025-10-29 11:29:14.998696
filename
p12.pcp
p13.pcp
p14.pcp
p15.pcp
p16.pcp
p18.pcp
p19.pcp
p2.pcp
p20.pcp
p21.pcp
p22.pcp
p25.pcp
p26.pcp
p27.pcp
p28.pcp
p29.pcp
p32.pcp
p33.pcp
p8.pcp
p9.pcp
