reservoir.con: written by SWAT+ editor v3.0.8 on 2025-10-29 11:31 for SWAT+ rev.61.0.1
      id  name                gis_id          area           lat           lon          elev       res               wst       cst      ovfl      rule   out_tot       obj_typ    obj_id       hyd_typ          frac  
       1  res004                   4      28.55034      66.51886      28.42625     258.00000         1     s66547n28547e         0         0         0         1           sdc       224           tot       1.00000  
       2  res005                   5      21.02133      66.51949      28.48902     255.00000         2     s66547n28547e         0         0         0         1           sdc       241           tot       1.00000  
       3  res008                   8       7.40273      66.56619      28.49425     268.00000         3     s66547n28547e         0         0         0         1           sdc       248           tot       1.00000  
       4  res009                   9      23.26891      66.58496      28.49638     284.00000         4     s66547n28547e         0         0         0         1           sdc       217           tot       1.00000  
       5  res010                  10      13.66891      66.60040      28.52646     272.00000         5     s66637n28552e         0         0         0         1           sdc       228           tot       1.00000  
       6  res012                  12       6.85406      66.61355      28.43894     296.00000         6     s66637n28552e         0         0         0         1           sdc       173           tot       1.00000  
       7  res016                  16      72.57134      66.51927      28.55730     257.00000         7     s66547n28547e         0         0         0         1           sdc       319           tot       1.00000  
       8  res017                  17      23.70650      66.52338      28.55501     255.00000         8     s66547n28547e         0         0         0         1           sdc       309           tot       1.00000  
       9  res019                  19       5.95257      66.52477      28.62361     258.00000         9     s66547n28547e         0         0         0         1           sdc       357           tot       1.00000  
      10  res020                  20     257.47951      66.54808      28.55117     262.00000        10     s66547n28547e         0         0         0         1           sdc       305           tot       1.00000  
      11  res023                  23      57.37231      66.58282      28.59035     270.00000        11     s66547n28547e         0         0         0         1           sdc       220           tot       1.00000  
      12  res027                  27      49.03956      66.64061      28.62584     290.00000        12     s66637n28552e         0         0         0         1           sdc        98           tot       1.00000  
      13  res029                  29      36.11986      66.65902      28.61456     282.00000        13     s66637n28552e         0         0         0         1           sdc       111           tot       1.00000  
      14  res030                  30      16.57814      66.67367      28.63492     290.00000        14     s66637n28552e         0         0         0         1           sdc        80           tot       1.00000  
      15  res032                  32      12.65946      66.68785      28.62947     293.00000        15     s66637n28552e         0         0         0         1           sdc        57           tot       1.00000  
      16  res034                  34      19.22436      66.70077      28.61463     291.33333        16     s66637n28552e         0         0         0         1           sdc        56           tot       1.00000  
      17  res036                  36       8.01423      66.43466      28.67213     313.00000        17     s66455n28765e         0         0         0         1           sdc       392           tot       1.00000  
      18  res037                  37     134.24740      66.43680      28.65733     309.00000        18     s66455n28765e         0         0         0         1           sdc       412           tot       1.00000  
      19  res042                  42       5.20336      66.52852      28.63800     249.00000        19     s66547n28547e         0         0         0         1           sdc       358           tot       1.00000  
      20  res043                  43      34.76703      66.53198      28.68362     248.00000        20     s66545n28772e         0         0         0         1           sdc       384           tot       1.00000  
      21  res045                  45      56.58878      66.54673      28.68965     252.00000        21     s66545n28772e         0         0         0         1           sdc       327           tot       1.00000  
      22  res050                  50      32.70348      66.67753      28.67627     299.00000        22     s66635n28778e         0         0         0         1           sdc        47           tot       1.00000  
      23  res054                  54      15.35327      66.68841      28.69534     303.00000        23     s66635n28778e         0         0         0         1           sdc        24           tot       1.00000  
      24  res057                  57      22.11412      66.49574      28.80676     236.00000        24     s66455n28765e         0         0         0         1           sdc       507           tot       1.00000  
      25  res058                  58      17.61499      66.50374      28.76307     244.00000        25     s66545n28772e         0         0         0         1           sdc       409           tot       1.00000  
      26  res059                  59      90.43932      66.52624      28.81430     247.00000        26     s66545n28772e         0         0         0         1           sdc       335           tot       1.00000  
      27  res062                  62      38.19734      66.57997      28.80366     271.00000        27     s66545n28772e         0         0         0         1           sdc       233           tot       1.00000  
      28  res064                  64      41.40743      66.64756      28.82080     311.00000        28     s66635n28778e         0         0         0         1           sdc       113           tot       1.00000  
      29  res065                  65      49.94326      66.67183      28.83730     270.00000        29     s66635n28778e         0         0         0         1           sdc       261           tot       1.00000  
      30  res067                  67      13.77265      66.76069      28.82096     325.00000        30     s66635n28778e         0         0         0         1           sdc       149           tot       1.00000  
      31  res070                  70      70.94198      66.36296      28.86137     239.00000        31     s66363n28983e         0         0         0         1           sdc       401           tot       1.00000  
      32  res071                  71      13.89177      66.38489      28.87206     242.00000        32     s66363n28983e         0         0         0         1           sdc       496           tot       1.00000  
      33  res084                  84       7.04079      66.55622      28.88803     263.00000        33     s66542n28997e         0         0         0         1           sdc       344           tot       1.00000  
      34  res089                  89      30.33418      66.64270      28.86575     279.00000        34     s66635n28778e         0         0         0         1           sdc       310           tot       1.00000  
      35  res098                  98      14.82248      66.37541      28.92647     238.00000        35     s66363n28983e         0         0         0         1           sdc       497           tot       1.00000  
      36  res100                 100      12.97852      66.46207      28.96643     207.00000        36     s66453n28990e         0         0         0         1           sdc       570           tot       1.00000  
      37  res101                 101     109.44623      66.51214      28.94746     238.00000        37     s66542n28997e         0         0         0         1           sdc       465           tot       1.00000  
      38  res103                 103      25.36947      66.52359      28.95265     238.00000        38     s66542n28997e         0         0         0         1           sdc       477           tot       1.00000  
      39  res109                 109      78.34970      66.62195      28.91261     251.00000        39     s66632n29004e         0         0         0         1           sdc       331           tot       1.00000  
      40  res110                 110     385.23540      66.65389      28.96020     239.00000        40     s66632n29004e         0         0         0         1           sdc       360           tot       1.00000  
      41  res111                 111      19.62031      66.64487      28.90859     255.00000        41     s66632n29004e         0         0         0         1           sdc       285           tot       1.00000  
      42  res112                 112       6.83691      66.65152      28.92734     246.00000        42     s66632n29004e         0         0         0         1           sdc       286           tot       1.00000  
      43  res118                 118      25.81903      66.40943      29.01855     236.00000        43     s66453n28990e         0         0         0         1           sdc       600           tot       1.00000  
      44  res120                 120      35.43459      66.45438      29.02877     211.00000        44     s66453n28990e         0         0         0         1           sdc       580           tot       1.00000  
      45  res121                 121      28.13754      66.51041      28.98912     237.00000        45     s66542n28997e         0         0         0         1           sdc       484           tot       1.00000  
      46  res122                 122      39.87856      66.51611      29.02717     237.00000        46     s66542n28997e         0         0         0         1           sdc       528           tot       1.00000  
      47  res124                 124     107.01038      66.61048      28.98870     238.00000        47     s66632n29004e         0         0         0         1           sdc       389           tot       1.00000  
      48  res126                 126       9.42330      66.70142      29.02726     270.00000        48     s66722n29011e         0         0         0         1           sdc       160           tot       1.00000  
      49  res127                 127      29.31743      66.72806      29.00126     283.00000        49     s66722n29011e         0         0         0         1           sdc       154           tot       1.00000  
      50  res131                 131     210.12439      66.36300      29.05944     232.00000        50     s66363n28983e         0         0         0         1           sdc       594           tot       1.00000  
      51  res134                 134      16.72152      66.51172      29.04586     235.00000        51     s66542n28997e         0         0         0         1           sdc       529           tot       1.00000  
      52  res135                 135      32.92124      66.55707      29.06983     234.00000        52     s66542n28997e         0         0         0         1           sdc       500           tot       1.00000  
      53  res136                 136       7.45808      66.56315      29.04809     240.00000        53     s66542n28997e         0         0         0         1           sdc       482           tot       1.00000  
      54  res137                 137       6.07966      66.57184      29.09141     244.00000        54     s66542n28997e         0         0         0         1           sdc       399           tot       1.00000  
      55  res141                 141    1929.04401      66.77245      29.07655     290.00000        55     s66811n29019e         0         0         0         1           sdc        87           tot       1.00000  
      56  res144                 144      44.74806      66.33026      29.13739     248.00000        56     s66360n29206e         0         0         0         1           sdc       552           tot       1.00000  
      57  res145                 145      83.04960      66.34368      29.11212     247.00000        57     s66360n29206e         0         0         0         1           sdc       578           tot       1.00000  
      58  res150                 150       5.04615      66.40062      29.12364     196.00000        58     s66360n29206e         0         0         0         1           sdc       628           tot       1.00000  
      59  res153                 153      37.13215      66.44819      29.11196     209.00000        59     s66450n29214e         0         0         0         1           sdc       608           tot       1.00000  
      60  res155                 155      35.61574      66.51026      29.14689     229.00000        60     s66539n29222e         0         0         0         1           sdc       572           tot       1.00000  
      61  res156                 156      14.77948      66.52556      29.11748     234.00000        61     s66539n29222e         0         0         0         1           sdc       538           tot       1.00000  
      62  res157                 157      31.49977      66.53418      29.13932     228.00000        62     s66539n29222e         0         0         0         1           sdc       534           tot       1.00000  
      63  res158                 158      51.43500      66.56822      29.15657     250.00000        63     s66539n29222e         0         0         0         1           sdc       353           tot       1.00000  
      64  res161                 161       4.94017      66.62881      29.13628     261.00000        64     s66629n29230e         0         0         0         1           sdc       271           tot       1.00000  
      65  res164                 164      17.83397      66.69229      29.15577     283.00000        65     s66719n29238e         0         0         0         1           sdc       136           tot       1.00000  
      66  res167                 167      12.95146      66.32105      29.16235     246.00000        66     s66360n29206e         0         0         0         1           sdc       546           tot       1.00000  
      67  res169                 169     188.27367      66.36713      29.20042     243.00000        67     s66360n29206e         0         0         0         1           sdc       587           tot       1.00000  
      68  res172                 172      18.65744      66.40425      29.19813     169.00000        68     s66360n29206e         0         0         0         1           sdc       636           tot       1.00000  
      69  res173                 173      22.75926      66.43068      29.16506     176.00000        69     s66450n29214e         0         0         0         1           sdc       634           tot       1.00000  
      70  res176                 176       7.00991      66.53369      29.21658     236.00000        70     s66539n29222e         0         0         0         1           sdc       488           tot       1.00000  
      71  res177                 177      13.57344      66.55393      29.19615     250.00000        71     s66539n29222e         0         0         0         1           sdc       352           tot       1.00000  
      72  res178                 178       8.23771      66.56867      29.20724     250.00000        72     s66539n29222e         0         0         0         1           sdc       304           tot       1.00000  
      73  res181                 181       6.63022      66.60795      29.18433     261.00000        73     s66629n29230e         0         0         0         1           sdc       250           tot       1.00000  
      74  res185                 185    1007.85999      66.32767      29.20502     250.00000        74     s66360n29206e         0         0         0         1           sdc       486           tot       1.00000  
      75  res186                 186      94.20583      66.32767      29.27178     249.00000        75     s66360n29206e         0         0         0         1           sdc       485           tot       1.00000  
      76  res187                 187      14.11224      66.37313      29.28494     165.00000        76     s66360n29206e         0         0         0         1           sdc       647           tot       1.00000  
      77  res189                 189      36.12654      66.39125      29.21820     167.00000        77     s66360n29206e         0         0         0         1           sdc       645           tot       1.00000  
      78  res190                 190       6.34123      66.39678      29.24415     170.00000        78     s66360n29206e         0         0         0         1           sdc       639           tot       1.00000  
      79  res191                 191      10.73086      66.42428      29.26741     231.00000        79     s66450n29214e         0         0         0         1           sdc       612           tot       1.00000  
      80  res193                 193      20.65684      66.46361      29.24904     228.00000        80     s66450n29214e         0         0         0         1           sdc       582           tot       1.00000  
      81  res194                 194       7.20640      66.47405      29.26791     232.00000        81     s66450n29214e         0         0         0         1           sdc       517           tot       1.00000  
      82  res195                 195      10.31535      66.48279      29.21814     232.00000        82     s66450n29214e         0         0         0         1           sdc       576           tot       1.00000  
      83  res196                 196       6.26189      66.48936      29.21571     232.00000        83     s66450n29214e         0         0         0         1           sdc       566           tot       1.00000  
      84  res198                 198       7.50879      66.52880      29.22780     238.00000        84     s66539n29222e         0         0         0         1           sdc       435           tot       1.00000  
      85  res204                 204     307.56316      66.61719      29.25088     268.00000        85     s66629n29230e         0         0         0         1           sdc       131           tot       1.00000  
      86  res205                 205      56.25358      66.69178      29.25833     294.00000        86     s66719n29238e         0         0         0         1           sdc        75           tot       1.00000  
      87  res207                 207       5.02652      66.44588      29.38719     266.00000        87     s66446n29438e         0         0         0         1           sdc       474           tot       1.00000  
      88  res208                 208      33.65348      66.45827      29.32403     252.00000        88     s66450n29214e         0         0         0         1           sdc       516           tot       1.00000  
      89  res213                 213       6.09496      66.48200      29.30950     246.00000        89     s66450n29214e         0         0         0         1           sdc       505           tot       1.00000  
      90  res214                 214      13.44285      66.50233      29.30758     243.00000        90     s66539n29222e         0         0         0         1           sdc       453           tot       1.00000  
      91  res215                 215     137.46630      66.54345      29.39843     303.00000        91     s66536n29447e         0         0         0         1           sdc       128           tot       1.00000  
      92  res218                 218       4.74931      66.58246      29.31547     279.00000        92     s66629n29230e         0         0         0         1           sdc       204           tot       1.00000  
      93  res219                 219      59.35699      66.60150      29.38029     282.00000        93     s66626n29456e         0         0         0         1           sdc       108           tot       1.00000  
      94  res221                 221      38.83470      66.61225      29.36063     280.00000        94     s66626n29456e         0         0         0         1           sdc       116           tot       1.00000  
      95  res223                 223      35.46470      66.62121      29.37843     282.00000        95     s66626n29456e         0         0         0         1           sdc       102           tot       1.00000  
      96  res224                 224       5.68540      66.64403      29.39574     304.00000        96     s66626n29456e         0         0         0         1           sdc        39           tot       1.00000  
      97  res225                 225       5.58920      66.64470      29.40952     304.00000        97     s66626n29456e         0         0         0         1           sdc        38           tot       1.00000  
      98  res230                 230      22.59855      66.43867      29.59674     289.00000        98     s66443n29662e         0         0         0         1           sdc       293           tot       1.00000  
      99  res231                 231      17.26162      66.45394      29.48190     274.00000        99     s66446n29438e         0         0         0         1           sdc       372           tot       1.00000  
     100  res232                 232       9.32796      66.45265      29.63615     299.00000       100     s66443n29662e         0         0         0         1           sdc       253           tot       1.00000  
     101  res235                 235      67.93678      66.48934      29.55661     305.00000       101     s66443n29662e         0         0         0         1           sdc       276           tot       1.00000  
     102  res236                 236      27.64895      66.49527      29.47324     291.00000       102     s66536n29447e         0         0         0         1           sdc       390           tot       1.00000  
