rout_unit.con: written by SWAT+ editor v3.0.8 on 2025-07-29 21:28 for SWAT+ rev.61.0.1
      id  name                gis_id          area           lat           lon          elev       rtu               wst       cst      ovfl      rule   out_tot       obj_typ    obj_id       hyd_typ          frac  
       1  rtu0010                 10     422.50240      66.78952      29.23901     374.28024         1     s66661n29375e         0         0         0         2           sdc         1           tot       1.00000           aqu         1           rhg       1.00000  
       2  rtu0020                 20     472.39680      66.81353      29.21031     338.79581         2     s66661n29062e         0         0         0         2           sdc         2           tot       1.00000           aqu         1           rhg       1.00000  
       3  rtu0030                 30     361.70240      66.79234      29.19038     325.25586         3     s66661n29062e         0         0         0         2           sdc         3           tot       1.00000           aqu         1           rhg       1.00000  
       4  rtu0040                 40     240.20480      66.80702      29.17222     313.46531         4     s66661n29062e         0         0         0         2           sdc         4           tot       1.00000           aqu         1           rhg       1.00000  
       5  rtu0050                 50     820.94080      66.82762      29.14718     320.21710         5     s66973n29062e         0         0         0         2           sdc         5           tot       1.00000           aqu         1           rhg       1.00000  
       6  rtu0060                 60     600.37120      66.76534      29.16985     310.37293         6     s66661n29062e         0         0         0         2           sdc         6           tot       1.00000           aqu         1           rhg       1.00000  
       7  rtu0070                 70     311.27040      66.78144      29.20770     344.48244         7     s66661n29062e         0         0         0         2           sdc         7           tot       1.00000           aqu         1           rhg       1.00000  
       8  rtu0080                 80     355.71200      66.77339      29.20088     334.37287         8     s66661n29062e         0         0         0         2           sdc         8           tot       1.00000           aqu         1           rhg       1.00000  
       9  rtu0090                 90     169.95840      66.80739      29.14167     297.52222         9     s66661n29062e         0         0         0         2           sdc         9           tot       1.00000           aqu         1           rhg       1.00000  
      10  rtu0100                100      31.10400      66.78609      29.15655     296.02716        10     s66661n29062e         0         0         0         2           sdc        10           tot       1.00000           aqu         1           rhg       1.00000  
      11  rtu0110                110     524.18560      66.83460      29.07828     315.01226        11     s66973n29062e         0         0         0         2           sdc        11           tot       1.00000           aqu         1           rhg       1.00000  
      12  rtu0120                120     158.89920      66.79530      29.13069     291.31787        12     s66661n29062e         0         0         0         2           sdc        12           tot       1.00000           aqu         1           rhg       1.00000  
      13  rtu0130                130     231.04000      66.81913      29.11851     301.10881        13     s66973n29062e         0         0         0         2           sdc        13           tot       1.00000           aqu         1           rhg       1.00000  
      14  rtu0140                140     238.95040      66.80535      29.12178     291.23730        14     s66661n29062e         0         0         0         2           sdc        14           tot       1.00000           aqu         1           rhg       1.00000  
      15  rtu0150                150     432.58880      66.69098      28.75383     358.06291        15     s66661n28750e         0         0         0         2           sdc        15           tot       1.00000           aqu         3           rhg       1.00000  
      16  rtu0160                160    1247.18080      66.79508      29.09690     294.67441        16     s66661n29062e         0         0         0         2           sdc        16           tot       1.00000           aqu         1           rhg       1.00000  
      17  rtu0170                170     226.66240      66.75923      29.14109     308.53659        17     s66661n29062e         0         0         0         2           sdc        17           tot       1.00000           aqu         1           rhg       1.00000  
      18  rtu0180                180     582.65600      66.68988      28.51244     356.47847        18     s66661n28438e         0         0         0         2           sdc        18           tot       1.00000           aqu         2           rhg       1.00000  
      19  rtu0190                190     245.88800      66.67441      28.76509     336.18480        19     s66661n28750e         0         0         0         2           sdc        19           tot       1.00000           aqu         3           rhg       1.00000  
      20  rtu0200                200     808.57600      66.81760      29.03164     327.32680        20     s66973n29062e         0         0         0         2           sdc        20           tot       1.00000           aqu         1           rhg       1.00000  
      21  rtu0210                210     221.36320      66.67056      28.73690     331.79588        21     s66661n28750e         0         0         0         2           sdc        21           tot       1.00000           aqu         3           rhg       1.00000  
      22  rtu0220                220       2.71360      66.68164      28.73074     318.76415        22     s66661n28750e         0         0         0         2           sdc        22           tot       1.00000           aqu         3           rhg       1.00000  
      23  rtu0230                230     352.23040      66.68799      28.71564     327.65448        23     s66661n28750e         0         0         0         2           sdc        23           tot       1.00000           aqu         3           rhg       1.00000  
      24  rtu0240                240     462.08000      66.70719      28.52462     352.72078        24     s66661n28438e         0         0         0         2           sdc        24           tot       1.00000           aqu         2           rhg       1.00000  
      25  rtu0250                250     832.17920      66.76573      29.25071     362.35749        25     s66661n29375e         0         0         0         2           sdc        25           tot       1.00000           aqu         4           rhg       1.00000  
      26  rtu0260                260     721.48480      66.72518      28.63208     315.42994        26     s66661n28750e         0         0         0         2           sdc        26           tot       1.00000           aqu         3           rhg       1.00000  
      27  rtu0270                270     340.01920      66.69601      28.56143     313.93841        27     s66661n28438e         0         0         0         2           sdc        27           tot       1.00000           aqu         2           rhg       1.00000  
      28  rtu0280                280     279.47520      66.69864      28.69135     323.50435        28     s66661n28750e         0         0         0         2           sdc        28           tot       1.00000           aqu         3           rhg       1.00000  
      29  rtu0290                290     279.37280      66.66192      29.40680     386.87226        29     s66661n29375e         0         0         0         2           sdc        29           tot       1.00000           aqu         6           rhg       1.00000  
      30  rtu0300                300     472.55040      66.69487      28.65865     306.69327        30     s66661n28750e         0         0         0         2           sdc        30           tot       1.00000           aqu         3           rhg       1.00000  
      31  rtu0310                310     325.04320      66.67095      29.42449     391.19879        31     s66661n29375e         0         0         0         2           sdc        31           tot       1.00000           aqu         6           rhg       1.00000  
      32  rtu0320                320     749.64480      66.74550      29.28790     359.23123        32     s66661n29375e         0         0         0         2           sdc        32           tot       1.00000           aqu         4           rhg       1.00000  
      33  rtu0330                330      73.01120      66.78066      29.09206     292.94039        33     s66661n29062e         0         0         0         2           sdc        33           tot       1.00000           aqu         1           rhg       1.00000  
      34  rtu0340                340    1437.82400      66.77902      29.06139     295.70239        34     s66661n29062e         0         0         0         2           sdc        34           tot       1.00000           aqu         1           rhg       1.00000  
      35  rtu0350                350     480.25600      66.68171      28.56950     307.28006        35     s66661n28438e         0         0         0         2           sdc        35           tot       1.00000           aqu         2           rhg       1.00000  
      36  rtu0360                360    1245.61920      66.64584      29.41845     334.31202        36     s66661n29375e         0         0         0         2           sdc        36           tot       1.00000           aqu         6           rhg       1.00000  
      37  rtu0370                370     295.19360      66.69199      28.60290     297.14925        37     s66661n28750e         0         0         0         2           sdc        37           tot       1.00000           aqu         2           rhg       1.00000  
      38  rtu0380                380     533.12000      66.71652      28.59090     308.00279        38     s66661n28438e         0         0         0         2           sdc        38           tot       1.00000           aqu         3           rhg       1.00000  
      39  rtu0390                390     454.75840      66.65365      28.73200     328.54200        39     s66661n28750e         0         0         0         2           sdc        39           tot       1.00000           aqu         5           rhg       1.00000  
      40  rtu0400                400     257.79200      66.73754      29.27857     352.86137        40     s66661n29375e         0         0         0         2           sdc        40           tot       1.00000           aqu         4           rhg       1.00000  
      41  rtu0410                410    1142.68160      66.69282      29.38934     396.05446        41     s66661n29375e         0         0         0         2           sdc        41           tot       1.00000           aqu         7           rhg       1.00000  
      42  rtu0420                420    1144.26880      66.75690      29.00539     320.85729        42     s66661n29062e         0         0         0         2           sdc        42           tot       1.00000           aqu         1           rhg       1.00000  
      43  rtu0430                430     686.97600      66.67135      28.68369     312.47662        43     s66661n28750e         0         0         0         2           sdc        43           tot       1.00000           aqu         5           rhg       1.00000  
      44  rtu0440                440     206.02880      66.73047      29.27717     362.62724        44     s66661n29375e         0         0         0         2           sdc        44           tot       1.00000           aqu         4           rhg       1.00000  
      45  rtu0450                450      14.31040      66.74348      29.23792     319.48658        45     s66661n29375e         0         0         0         2           sdc        45           tot       1.00000           aqu         4           rhg       1.00000  
      46  rtu0460                460      22.68160      66.74492      29.23086     314.75169        46     s66661n29375e         0         0         0         2           sdc        46           tot       1.00000           aqu         4           rhg       1.00000  
      47  rtu0470                470     371.76320      66.63609      28.73768     322.90718        47     s66661n28750e         0         0         0         2           sdc        47           tot       1.00000           aqu         5           rhg       1.00000  
      48  rtu0480                480     405.06880      66.71528      29.33057     429.04474        48     s66661n29375e         0         0         0         2           sdc        48           tot       1.00000           aqu         8           rhg       1.00000  
      49  rtu0490                490     107.46880      66.70555      28.63120     302.67842        49     s66661n28750e         0         0         0         2           sdc        49           tot       1.00000           aqu         3           rhg       1.00000  
      50  rtu0500                500     450.25280      66.62875      29.46635     327.29651        50     s66661n29375e         0         0         0         2           sdc        50           tot       1.00000           aqu         6           rhg       1.00000  
      51  rtu0510                510     144.74240      66.69128      28.63438     299.30368        51     s66661n28750e         0         0         0         2           sdc        51           tot       1.00000           aqu         3           rhg       1.00000  
      52  rtu0520                520     186.31680      66.73754      29.23426     319.49753        52     s66661n29375e         0         0         0         2           sdc        52           tot       1.00000           aqu         4           rhg       1.00000  
      53  rtu0530                530     132.40320      66.68547      28.63012     296.18349        53     s66661n28750e         0         0         0         2           sdc        53           tot       1.00000           aqu         5           rhg       1.00000  
      54  rtu0540                540     200.70400      66.65170      28.68961     314.71263        54     s66661n28750e         0         0         0         2           sdc        54           tot       1.00000           aqu         5           rhg       1.00000  
      55  rtu0550                550     318.46400      66.78538      29.00748     317.54196        55     s66661n29062e         0         0         0         2           sdc        55           tot       1.00000           aqu         1           rhg       1.00000  
      56  rtu0560                560     231.21920      66.70135      29.31264     381.62976        56     s66661n29375e         0         0         0         2           sdc        56           tot       1.00000           aqu         8           rhg       1.00000  
      57  rtu0570                570     281.60000      66.69932      29.35516     398.83318        57     s66661n29375e         0         0         0         2           sdc        57           tot       1.00000           aqu         7           rhg       1.00000  
      58  rtu0580                580     486.91200      66.59916      29.49291     353.25705        58     s66661n29375e         0         0         0         2           sdc        58           tot       1.00000           aqu         9           rhg       1.00000  
      59  rtu0590                590     342.47680      66.61695      29.48474     327.50247        59     s66661n29375e         0         0         0         2           sdc        59           tot       1.00000           aqu         9           rhg       1.00000  
      60  rtu0600                600     298.70080      66.74658      29.18758     319.72592        60     s66661n29062e         0         0         0         2           sdc        60           tot       1.00000           aqu         4           rhg       1.00000  
      61  rtu0610                610     220.49280      66.71538      29.29210     378.03123        61     s66661n29375e         0         0         0         2           sdc        61           tot       1.00000           aqu         8           rhg       1.00000  
      62  rtu0620                620     416.20480      66.73131      29.22223     316.59694        62     s66661n29375e         0         0         0         2           sdc        62           tot       1.00000           aqu         4           rhg       1.00000  
      63  rtu0630                630      46.05440      66.70435      29.28187     341.47137        63     s66661n29375e         0         0         0         2           sdc        63           tot       1.00000           aqu         8           rhg       1.00000  
      64  rtu0640                640     381.18400      66.63786      28.69536     324.68240        64     s66661n28750e         0         0         0         2           sdc        64           tot       1.00000           aqu         5           rhg       1.00000  
      65  rtu0650                650     219.52000      66.75313      29.10956     300.82531        65     s66661n29062e         0         0         0         2           sdc        65           tot       1.00000           aqu         1           rhg       1.00000  
      66  rtu0660                660      99.27680      66.75954      29.06284     290.41387        66     s66661n29062e         0         0         0         2           sdc        66           tot       1.00000           aqu         1           rhg       1.00000  
      67  rtu0670                670     220.64640      66.62854      29.41913     331.76598        67     s66661n29375e         0         0         0         2           sdc        67           tot       1.00000           aqu         6           rhg       1.00000  
      68  rtu0680                680    1180.85120      66.67634      29.32170     337.29985        68     s66661n29375e         0         0         0         2           sdc        68           tot       1.00000           aqu         7           rhg       1.00000  
      69  rtu0690                690     500.48000      66.59328      29.44985     321.47223        69     s66661n29375e         0         0         0         2           sdc        69           tot       1.00000           aqu         9           rhg       1.00000  
      70  rtu0700                700     684.54400      66.69377      29.26867     318.20849        70     s66661n29375e         0         0         0         2           sdc        70           tot       1.00000           aqu         8           rhg       1.00000  
      71  rtu0710                710     243.43040      66.65721      29.35973     382.18982        71     s66661n29375e         0         0         0         2           sdc        71           tot       1.00000           aqu         6           rhg       1.00000  
      72  rtu0720                720     376.06400      66.62224      29.39559     321.65412        72     s66661n29375e         0         0         0         2           sdc        72           tot       1.00000           aqu         6           rhg       1.00000  
      73  rtu0730                730     441.19040      66.71784      29.23597     316.42892        73     s66661n29375e         0         0         0         2           sdc        73           tot       1.00000           aqu         8           rhg       1.00000  
      74  rtu0740                740     644.53120      66.66775      28.62904     295.84879        74     s66661n28750e         0         0         0         2           sdc        74           tot       1.00000           aqu         5           rhg       1.00000  
      75  rtu0750                750     219.34080      66.75315      29.04950     290.95542        75     s66661n29062e         0         0         0         2           sdc        75           tot       1.00000           aqu         1           rhg       1.00000  
      76  rtu0760                760     155.82720      66.76676      29.03572     294.17102        76     s66661n29062e         0         0         0         2           sdc        76           tot       1.00000           aqu         1           rhg       1.00000  
      77  rtu0770                770     489.95840      66.60913      29.43221     304.63060        77     s66661n29375e         0         0         0         2           sdc        77           tot       1.00000           aqu         9           rhg       1.00000  
      78  rtu0780                780     245.88800      66.65286      28.64956     305.46174        78     s66661n28750e         0         0         0         2           sdc        78           tot       1.00000           aqu         5           rhg       1.00000  
      79  rtu0790                790      13.10720      66.76838      29.02551     291.02734        79     s66661n29062e         0         0         0         2           sdc        79           tot       1.00000           aqu         1           rhg       1.00000  
      80  rtu0800                800     234.34240      66.74411      29.07444     291.35154        80     s66661n29062e         0         0         0         2           sdc        80           tot       1.00000           aqu         1           rhg       1.00000  
      81  rtu0810                810     216.70400      66.63584      29.35777     308.68541        81     s66661n29375e         0         0         0         2           sdc        81           tot       1.00000           aqu         6           rhg       1.00000  
      82  rtu0820                820     258.09920      66.73343      29.17443     313.77723        82     s66661n29062e         0         0         0         2           sdc        82           tot       1.00000           aqu         4           rhg       1.00000  
      83  rtu0830                830     425.26720      66.58295      29.43143     322.60173        83     s66661n29375e         0         0         0         2           sdc        83           tot       1.00000           aqu         9           rhg       1.00000  
      84  rtu0840                840     626.58560      66.66654      28.55648     314.11436        84     s66661n28438e         0         0         0         2           sdc        84           tot       1.00000           aqu         5           rhg       1.00000  
      85  rtu0850                850      43.26400      66.72212      29.19513     301.01006        85     s66661n29062e         0         0         0         2           sdc        85           tot       1.00000           aqu         4           rhg       1.00000  
      86  rtu0860                860     992.56320      66.73201      29.11756     300.33434        86     s66661n29062e         0         0         0         2           sdc        86           tot       1.00000           aqu         1           rhg       1.00000  
      87  rtu0870                870     106.16320      66.59899      29.39909     289.63299        87     s66661n29375e         0         0         0         2           sdc        87           tot       1.00000           aqu         9           rhg       1.00000  
      88  rtu0880                880     241.97120      66.68726      29.23071     301.65182        88     s66661n29375e         0         0         0         2           sdc        88           tot       1.00000           aqu         8           rhg       1.00000  
      89  rtu0890                890     317.00480      66.70912      29.23861     301.26230        89     s66661n29375e         0         0         0         2           sdc        89           tot       1.00000           aqu         8           rhg       1.00000  
      90  rtu0900                900     293.29920      66.64215      28.64104     314.94780        90     s66661n28750e         0         0         0         2           sdc        90           tot       1.00000           aqu         5           rhg       1.00000  
      91  rtu0910                910     216.93440      66.72266      29.17104     308.78015        91     s66661n29062e         0         0         0         2           sdc        91           tot       1.00000           aqu         4           rhg       1.00000  
      92  rtu0920                920     196.78720      66.71041      29.18510     295.81462        92     s66661n29062e         0         0         0         2           sdc        92           tot       1.00000           aqu         4           rhg       1.00000  
      93  rtu0930                930     135.37280      66.61881      29.37044     282.70632        93     s66661n29375e         0         0         0         2           sdc        93           tot       1.00000           aqu         6           rhg       1.00000  
      94  rtu0940                940       2.17600      66.70439      29.21522     291.49412        94     s66661n29062e         0         0         0         2           sdc        94           tot       1.00000           aqu         8           rhg       1.00000  
      95  rtu0950                950      63.48800      66.65804      28.61134     287.77056        95     s66661n28750e         0         0         0         2           sdc        95           tot       1.00000           aqu         5           rhg       1.00000  
      96  rtu0960                960     319.87200      66.58757      29.38857     296.77927        96     s66661n29375e         0         0         0         2           sdc        96           tot       1.00000           aqu         9           rhg       1.00000  
      97  rtu0970                970       7.55200      66.70528      29.21156     291.78983        97     s66661n29062e         0         0         0         2           sdc        97           tot       1.00000           aqu         8           rhg       1.00000  
      98  rtu0980                980      83.99360      66.60456      29.38416     289.55440        98     s66661n29375e         0         0         0         2           sdc        98           tot       1.00000           aqu         9           rhg       1.00000  
      99  rtu0990                990      36.71040      66.70274      29.20844     291.53208        99     s66661n29062e         0         0         0         2           sdc        99           tot       1.00000           aqu         8           rhg       1.00000  
     100  rtu1000               1000      57.08800      66.65462      28.60900     286.45247       100     s66661n28750e         0         0         0         2           sdc       100           tot       1.00000           aqu         5           rhg       1.00000  
     101  rtu1010               1010    1433.47200      66.63536      28.81175     330.23684       101     s66661n28750e         0         0         0         2           sdc       101           tot       1.00000           aqu        12           rhg       1.00000  
     102  rtu1020               1020     282.64960      66.62803      29.33861     289.48483       102     s66661n29375e         0         0         0         2           sdc       102           tot       1.00000           aqu         6           rhg       1.00000  
     103  rtu1030               1030      38.70720      66.61025      29.36501     281.54630       103     s66661n29375e         0         0         0         2           sdc       103           tot       1.00000           aqu         9           rhg       1.00000  
     104  rtu1040               1040     240.02560      66.62219      28.63563     302.20392       104     s66661n28750e         0         0         0         2           sdc       104           tot       1.00000           aqu         5           rhg       1.00000  
     105  rtu1050               1050     489.88160      66.65476      29.32539     320.83868       105     s66661n29375e         0         0         0         2           sdc       105           tot       1.00000           aqu         7           rhg       1.00000  
     106  rtu1060               1060     359.80800      66.64973      28.58131     292.67584       106     s66661n28438e         0         0         0         2           sdc       106           tot       1.00000           aqu         5           rhg       1.00000  
     107  rtu1070               1070     471.75680      66.69372      29.18839     289.63333       107     s66661n29062e         0         0         0         2           sdc       107           tot       1.00000           aqu        10           rhg       1.00000  
     108  rtu1080               1080     226.17600      66.62971      28.65806     322.83905       108     s66661n28750e         0         0         0         2           sdc       108           tot       1.00000           aqu         5           rhg       1.00000  
     109  rtu1090               1090      35.20000      66.61613      29.35946     281.44364       109     s66661n29375e         0         0         0         2           sdc       109           tot       1.00000           aqu         6           rhg       1.00000  
     110  rtu1100               1100     796.16000      66.65787      28.51743     321.76563       110     s66661n28438e         0         0         0         2           sdc       110           tot       1.00000           aqu         5           rhg       1.00000  
     111  rtu1110               1110     884.71040      66.57175      29.45093     347.48115       111     s66661n29375e         0         0         0         2           sdc       111           tot       1.00000           aqu        13           rhg       1.00000  