rout_unit.con: written by SWAT+ editor v3.0.8 on 2025-10-29 11:31 for SWAT+ rev.61.0.1
      id  name                gis_id          area           lat           lon          elev       rtu               wst       cst      ovfl      rule   out_tot       obj_typ    obj_id       hyd_typ          frac  
       1  rtu0010                 10     422.50240      66.78952      29.23901     374.28024         1     s66719n29238e         0         0         0         2           sdc         1           tot       1.00000           aqu         1           rhg       1.00000  
       2  rtu0020                 20     472.39680      66.81353      29.21031     338.79581         2     s66719n29238e         0         0         0         2           sdc         2           tot       1.00000           aqu         1           rhg       1.00000  
       3  rtu0030                 30     361.70240      66.79234      29.19038     325.25586         3     s66719n29238e         0         0         0         2           sdc         3           tot       1.00000           aqu         1           rhg       1.00000  
       4  rtu0040                 40     240.20480      66.80702      29.17222     313.46531         4     s66719n29238e         0         0         0         2           sdc         4           tot       1.00000           aqu         1           rhg       1.00000  
       5  rtu0050                 50     820.94080      66.82762      29.14718     320.21710         5     s66811n29019e         0         0         0         2           sdc         5           tot       1.00000           aqu         1           rhg       1.00000  
       6  rtu0060                 60     600.37120      66.76534      29.16985     310.37293         6     s66719n29238e         0         0         0         2           sdc         6           tot       1.00000           aqu         1           rhg       1.00000  
       7  rtu0070                 70     311.27040      66.78144      29.20770     344.48244         7     s66719n29238e         0         0         0         2           sdc         7           tot       1.00000           aqu         1           rhg       1.00000  
       8  rtu0080                 80     355.71200      66.77339      29.20088     334.37287         8     s66719n29238e         0         0         0         2           sdc         8           tot       1.00000           aqu         1           rhg       1.00000  
       9  rtu0090                 90     169.95840      66.80739      29.14167     297.52222         9     s66811n29019e         0         0         0         2           sdc         9           tot       1.00000           aqu         1           rhg       1.00000  
      10  rtu0100                100      31.10400      66.78609      29.15655     296.02716        10     s66719n29238e         0         0         0         2           sdc        10           tot       1.00000           aqu         1           rhg       1.00000  
      11  rtu0110                110     524.18560      66.83460      29.07828     315.01226        11     s66811n29019e         0         0         0         2           sdc        11           tot       1.00000           aqu         1           rhg       1.00000  
      12  rtu0120                120     158.89920      66.79530      29.13069     291.31787        12     s66811n29019e         0         0         0         2           sdc        12           tot       1.00000           aqu         1           rhg       1.00000  
      13  rtu0130                130     231.04000      66.81913      29.11851     301.10881        13     s66811n29019e         0         0         0         2           sdc        13           tot       1.00000           aqu         1           rhg       1.00000  
      14  rtu0140                140     238.95040      66.80535      29.12178     291.23730        14     s66811n29019e         0         0         0         2           sdc        14           tot       1.00000           aqu         1           rhg       1.00000  
      15  rtu0150                150     432.58880      66.69098      28.75383     358.06291        15     s66635n28778e         0         0         0         2           sdc        15           tot       1.00000           aqu         3           rhg       1.00000  
      16  rtu0160                160    1247.18080      66.79508      29.09690     294.67441        16     s66811n29019e         0         0         0         2           sdc        16           tot       1.00000           aqu         1           rhg       1.00000  
      17  rtu0170                170     226.66240      66.75923      29.14109     308.53659        17     s66719n29238e         0         0         0         2           sdc        17           tot       1.00000           aqu         1           rhg       1.00000  
      18  rtu0180                180     582.65600      66.68988      28.51244     356.47847        18     s66637n28552e         0         0         0         2           sdc        18           tot       1.00000           aqu         2           rhg       1.00000  
      19  rtu0190                190     245.88800      66.67441      28.76509     336.18480        19     s66635n28778e         0         0         0         2           sdc        19           tot       1.00000           aqu         3           rhg       1.00000  
      20  rtu0200                200     808.57600      66.81760      29.03164     327.32680        20     s66811n29019e         0         0         0         2           sdc        20           tot       1.00000           aqu         1           rhg       1.00000  
      21  rtu0210                210     221.36320      66.67056      28.73690     331.79588        21     s66635n28778e         0         0         0         2           sdc        21           tot       1.00000           aqu         3           rhg       1.00000  
      22  rtu0220                220       2.71360      66.68164      28.73074     318.76415        22     s66635n28778e         0         0         0         2           sdc        22           tot       1.00000           aqu         3           rhg       1.00000  
      23  rtu0230                230     294.40000      66.68828      28.71982     331.57574        23     s66635n28778e         0         0         0         2           sdc        23           tot       1.00000           aqu         3           rhg       1.00000  
      24  rtu0240                240      44.51840      66.68513      28.69526     308.15871        24     s66635n28778e         0         0         0         2           res        23           tot       1.00000           aqu         3           rhg       1.00000  
      25  rtu0250                250      13.31200      66.69115      28.69134     306.13269        25     s66635n28778e         0         0         0         2           sdc        24           tot       1.00000           aqu         3           rhg       1.00000  
      26  rtu0260                260     462.08000      66.70719      28.52462     352.72078        26     s66637n28552e         0         0         0         2           sdc        25           tot       1.00000           aqu         2           rhg       1.00000  
      27  rtu0270                270     832.17920      66.76573      29.25071     362.35749        27     s66719n29238e         0         0         0         2           sdc        26           tot       1.00000           aqu         4           rhg       1.00000  
      28  rtu0280                280     721.48480      66.72518      28.63208     315.42994        28     s66637n28552e         0         0         0         2           sdc        27           tot       1.00000           aqu         3           rhg       1.00000  
      29  rtu0290                290     340.01920      66.69601      28.56143     313.93841        29     s66637n28552e         0         0         0         2           sdc        28           tot       1.00000           aqu         2           rhg       1.00000  
      30  rtu0300                300     279.47520      66.69864      28.69135     323.50435        30     s66635n28778e         0         0         0         2           sdc        29           tot       1.00000           aqu         3           rhg       1.00000  
      31  rtu0310                310     279.37280      66.66192      29.40680     386.87226        31     s66626n29456e         0         0         0         2           sdc        30           tot       1.00000           aqu         6           rhg       1.00000  
      32  rtu0320                320     472.49920      66.69487      28.65865     306.69502        32     s66637n28552e         0         0         0         2           sdc        31           tot       1.00000           aqu         3           rhg       1.00000  
      33  rtu0330                330       0.05120      66.70064      28.62041     290.50000        33     s66637n28552e         0         0         0         2           res        16           tot       1.00000           aqu         3           rhg       1.00000  
      34  rtu0340                340     325.04320      66.67095      29.42449     391.19879        34     s66626n29456e         0         0         0         2           sdc        32           tot       1.00000           aqu         6           rhg       1.00000  
      35  rtu0350                350     749.64480      66.74550      29.28790     359.23123        35     s66719n29238e         0         0         0         2           sdc        33           tot       1.00000           aqu         4           rhg       1.00000  
      36  rtu0360                360      73.01120      66.78066      29.09206     292.94039        36     s66811n29019e         0         0         0         2           sdc        34           tot       1.00000           aqu         1           rhg       1.00000  
      37  rtu0370                370    1437.82400      66.77902      29.06139     295.70239        37     s66811n29019e         0         0         0         2           sdc        35           tot       1.00000           aqu         1           rhg       1.00000  
      38  rtu0380                380     480.25600      66.68171      28.56950     307.28006        38     s66637n28552e         0         0         0         2           sdc        36           tot       1.00000           aqu         2           rhg       1.00000  
      39  rtu0390                390     692.73600      66.64607      29.44308     327.23551        39     s66626n29456e         0         0         0         2           sdc        37           tot       1.00000           aqu         6           rhg       1.00000  
      40  rtu0400                400      23.32160      66.64272      29.41454     329.36334        40     s66626n29456e         0         0         0         2           res        97           tot       1.00000           aqu         6           rhg       1.00000  
      41  rtu0410                410     305.89440      66.64795      29.39234     352.95723        41     s66626n29456e         0         0         0         2           sdc        38           tot       1.00000           aqu         6           rhg       1.00000  
      42  rtu0420                420      10.67520      66.64383      29.39691     311.15108        42     s66626n29456e         0         0         0         2           res        96           tot       1.00000           aqu         6           rhg       1.00000  
      43  rtu0430                430     212.99200      66.64246      29.37734     332.25252        43     s66626n29456e         0         0         0         2           sdc        39           tot       1.00000           aqu         6           rhg       1.00000  
      44  rtu0440                440     292.09600      66.69191      28.60283     297.15706        44     s66637n28552e         0         0         0         2           sdc        40           tot       1.00000           aqu         2           rhg       1.00000  
      45  rtu0450                450       3.09760      66.69946      28.60943     296.41322        45     s66637n28552e         0         0         0         2           res        16           tot       1.00000           aqu         2           rhg       1.00000  
      46  rtu0460                460     533.12000      66.71652      28.59090     308.00279        46     s66637n28552e         0         0         0         2           sdc        41           tot       1.00000           aqu         3           rhg       1.00000  
      47  rtu0470                470     454.75840      66.65365      28.73200     328.54200        47     s66635n28778e         0         0         0         2           sdc        42           tot       1.00000           aqu         5           rhg       1.00000  
      48  rtu0480                480     257.79200      66.73754      29.27857     352.86137        48     s66719n29238e         0         0         0         2           sdc        43           tot       1.00000           aqu         4           rhg       1.00000  
      49  rtu0490                490    1142.68160      66.69282      29.38934     396.05446        49     s66626n29456e         0         0         0         2           sdc        44           tot       1.00000           aqu         7           rhg       1.00000  
      50  rtu0500                500    1144.26880      66.75690      29.00539     320.85729        50     s66722n29011e         0         0         0         2           sdc        45           tot       1.00000           aqu         1           rhg       1.00000  
      51  rtu0510                510     225.12640      66.66612      28.70327     322.29020        51     s66635n28778e         0         0         0         2           sdc        46           tot       1.00000           aqu         5           rhg       1.00000  
      52  rtu0520                520     242.58560      66.67213      28.68626     312.96095        52     s66635n28778e         0         0         0         2           res        22           tot       1.00000           aqu         5           rhg       1.00000  
      53  rtu0530                530     219.26400      66.67584      28.66074     301.86480        53     s66637n28552e         0         0         0         2           sdc        47           tot       1.00000           aqu         5           rhg       1.00000  
      54  rtu0540                540     206.02880      66.73047      29.27717     362.62724        54     s66719n29238e         0         0         0         2           sdc        48           tot       1.00000           aqu         4           rhg       1.00000  
      55  rtu0550                550      14.31040      66.74348      29.23792     319.48658        55     s66719n29238e         0         0         0         2           sdc        49           tot       1.00000           aqu         4           rhg       1.00000  
      56  rtu0560                560      22.68160      66.74492      29.23086     314.75169        56     s66719n29238e         0         0         0         2           sdc        50           tot       1.00000           aqu         4           rhg       1.00000  
      57  rtu0570                570     371.76320      66.63609      28.73768     322.90718        57     s66635n28778e         0         0         0         2           sdc        51           tot       1.00000           aqu         5           rhg       1.00000  
      58  rtu0580                580     405.06880      66.71528      29.33057     429.04474        58     s66719n29238e         0         0         0         2           sdc        52           tot       1.00000           aqu         8           rhg       1.00000  
      59  rtu0590                590      13.31200      66.70238      28.61215     297.55192        59     s66637n28552e         0         0         0         2           sdc        53           tot       1.00000           aqu         3           rhg       1.00000  
      60  rtu0600                600      94.15680      66.70600      28.63389     303.40321        60     s66637n28552e         0         0         0         2           res        16           tot       1.00000           aqu         3           rhg       1.00000  
      61  rtu0610                610     450.25280      66.62875      29.46635     327.29651        61     s66626n29456e         0         0         0         2           sdc        54           tot       1.00000           aqu         6           rhg       1.00000  
      62  rtu0620                620     144.74240      66.69128      28.63438     299.30368        62     s66637n28552e         0         0         0         2           res        16           tot       1.00000           aqu         3           rhg       1.00000  
      63  rtu0630                630     186.31680      66.73754      29.23426     319.49753        63     s66719n29238e         0         0         0         2           sdc        55           tot       1.00000           aqu         4           rhg       1.00000  
      64  rtu0640                640       0.25600      66.69878      28.61079     291.50000        64     s66637n28552e         0         0         0         2           res        16           tot       1.00000           aqu         5           rhg       1.00000  
      65  rtu0650                650      43.64800      66.69216      28.62031     293.26393        65     s66637n28552e         0         0         0         2           sdc        56           tot       1.00000           aqu         5           rhg       1.00000  
      66  rtu0660                660      27.67360      66.68441      28.62593     294.36540        66     s66637n28552e         0         0         0         2           res        15           tot       1.00000           aqu         5           rhg       1.00000  
      67  rtu0670                670      60.82560      66.68110      28.63915     299.12542        67     s66637n28552e         0         0         0         2           sdc        57           tot       1.00000           aqu         5           rhg       1.00000  
      68  rtu0680                680     200.70400      66.65170      28.68961     314.71263        68     s66635n28778e         0         0         0         2           sdc        58           tot       1.00000           aqu         5           rhg       1.00000  
      69  rtu0690                690     318.46400      66.78538      29.00748     317.54196        69     s66811n29019e         0         0         0         2           sdc        59           tot       1.00000           aqu         1           rhg       1.00000  
      70  rtu0700                700     231.21920      66.70135      29.31264     381.62976        70     s66719n29238e         0         0         0         2           sdc        60           tot       1.00000           aqu         8           rhg       1.00000  
      71  rtu0710                710     281.60000      66.69932      29.35516     398.83318        71     s66719n29238e         0         0         0         2           sdc        61           tot       1.00000           aqu         7           rhg       1.00000  
      72  rtu0720                720     486.91200      66.59916      29.49291     353.25705        72     s66626n29456e         0         0         0         2           sdc        62           tot       1.00000           aqu         9           rhg       1.00000  
      73  rtu0730                730     342.47680      66.61695      29.48474     327.50247        73     s66626n29456e         0         0         0         2           sdc        63           tot       1.00000           aqu         9           rhg       1.00000  
      74  rtu0740                740     298.70080      66.74658      29.18758     319.72592        74     s66719n29238e         0         0         0         2           sdc        64           tot       1.00000           aqu         4           rhg       1.00000  
      75  rtu0750                750     220.49280      66.71538      29.29210     378.03123        75     s66719n29238e         0         0         0         2           sdc        65           tot       1.00000           aqu         8           rhg       1.00000  
      76  rtu0760                760     416.20480      66.73131      29.22223     316.59694        76     s66719n29238e         0         0         0         2           sdc        66           tot       1.00000           aqu         4           rhg       1.00000  
      77  rtu0770                770      46.05440      66.70435      29.28187     341.47137        77     s66719n29238e         0         0         0         2           sdc        67           tot       1.00000           aqu         8           rhg       1.00000  
      78  rtu0780                780     381.18400      66.63786      28.69536     324.68240        78     s66635n28778e         0         0         0         2           sdc        68           tot       1.00000           aqu         5           rhg       1.00000  
      79  rtu0790                790     219.52000      66.75313      29.10956     300.82531        79     s66722n29011e         0         0         0         2           sdc        69           tot       1.00000           aqu         1           rhg       1.00000  
      80  rtu0800                800      99.27680      66.75954      29.06284     290.41387        80     s66722n29011e         0         0         0         2           sdc        70           tot       1.00000           aqu         1           rhg       1.00000  
      81  rtu0810                810     220.64640      66.62854      29.41913     331.76598        81     s66626n29456e         0         0         0         2           sdc        71           tot       1.00000           aqu         6           rhg       1.00000  
      82  rtu0820                820    1180.85120      66.67634      29.32170     337.29985        82     s66719n29238e         0         0         0         2           sdc        72           tot       1.00000           aqu         7           rhg       1.00000  
      83  rtu0830                830     500.48000      66.59328      29.44985     321.47223        83     s66626n29456e         0         0         0         2           sdc        73           tot       1.00000           aqu         9           rhg       1.00000  
      84  rtu0840                840     264.32000      66.69953      29.27201     324.71002        84     s66719n29238e         0         0         0         2           sdc        74           tot       1.00000           aqu         8           rhg       1.00000  
      85  rtu0850                850     228.32640      66.68832      29.28426     329.96199        85     s66719n29238e         0         0         0         2           res        86           tot       1.00000           aqu         8           rhg       1.00000  
      86  rtu0860                860     191.89760      66.69233      29.24550     295.26854        86     s66719n29238e         0         0         0         2           sdc        75           tot       1.00000           aqu         8           rhg       1.00000  
      87  rtu0870                870     243.43040      66.65721      29.35973     382.18982        87     s66626n29456e         0         0         0         2           sdc        76           tot       1.00000           aqu         6           rhg       1.00000  
      88  rtu0880                880     376.06400      66.62224      29.39559     321.65412        88     s66626n29456e         0         0         0         2           sdc        77           tot       1.00000           aqu         6           rhg       1.00000  
      89  rtu0890                890     441.19040      66.71784      29.23597     316.42892        89     s66719n29238e         0         0         0         2           sdc        78           tot       1.00000           aqu         8           rhg       1.00000  
      90  rtu0900                900      97.58720      66.67564      28.62286     293.92209        90     s66637n28552e         0         0         0         2           sdc        79           tot       1.00000           aqu         5           rhg       1.00000  
      91  rtu0910                910      16.35840      66.67185      28.63564     287.51956        91     s66637n28552e         0         0         0         2           res        14           tot       1.00000           aqu         5           rhg       1.00000  
      92  rtu0920                920     530.58560      66.66617      28.62997     296.45995        92     s66637n28552e         0         0         0         2           sdc        80           tot       1.00000           aqu         5           rhg       1.00000  
      93  rtu0930                930     219.34080      66.75315      29.04950     290.95542        93     s66722n29011e         0         0         0         2           sdc        81           tot       1.00000           aqu         1           rhg       1.00000  
      94  rtu0940                940     155.82720      66.76676      29.03572     294.17102        94     s66811n29019e         0         0         0         2           sdc        82           tot       1.00000           aqu         1           rhg       1.00000  
      95  rtu0950                950     489.95840      66.60913      29.43221     304.63060        95     s66626n29456e         0         0         0         2           sdc        83           tot       1.00000           aqu         9           rhg       1.00000  
      96  rtu0960                960     245.88800      66.65286      28.64956     305.46174        96     s66637n28552e         0         0         0         2           sdc        84           tot       1.00000           aqu         5           rhg       1.00000  
      97  rtu0970                970      13.10720      66.76838      29.02551     291.02734        97     s66811n29019e         0         0         0         2           sdc        85           tot       1.00000           aqu         1           rhg       1.00000  
      98  rtu0980                980       4.96640      66.76956      29.02546     288.62371        98     s66811n29019e         0         0         0         2           sdc        86           tot       1.00000           aqu         1           rhg       1.00000  
      99  rtu0990                990      55.29600      66.75397      29.06263     290.62315        99     s66722n29011e         0         0         0         2           res        55           tot       1.00000           aqu         1           rhg       1.00000  
     100  rtu1000               1000     174.08000      66.74025      29.07958     291.66074       100     s66722n29011e         0         0         0         2           sdc        87           tot       1.00000           aqu         1           rhg       1.00000  
     101  rtu1010               1010     216.70400      66.63584      29.35777     308.68541       101     s66626n29456e         0         0         0         2           sdc        88           tot       1.00000           aqu         6           rhg       1.00000  
     102  rtu1020               1020     258.09920      66.73343      29.17443     313.77723       102     s66719n29238e         0         0         0         2           sdc        89           tot       1.00000           aqu         4           rhg       1.00000  
     103  rtu1030               1030     425.26720      66.58295      29.43143     322.60173       103     s66536n29447e         0         0         0         2           sdc        90           tot       1.00000           aqu         9           rhg       1.00000  
     104  rtu1040               1040     626.58560      66.66654      28.55648     314.11436       104     s66637n28552e         0         0         0         2           sdc        91           tot       1.00000           aqu         5           rhg       1.00000  
     105  rtu1050               1050      43.26400      66.72212      29.19513     301.01006       105     s66719n29238e         0         0         0         2           sdc        92           tot       1.00000           aqu         4           rhg       1.00000  
     106  rtu1060               1060     992.56320      66.73201      29.11756     300.33434       106     s66722n29011e         0         0         0         2           sdc        93           tot       1.00000           aqu         1           rhg       1.00000  
     107  rtu1070               1070     106.16320      66.59899      29.39909     289.63299       107     s66626n29456e         0         0         0         2           sdc        94           tot       1.00000           aqu         9           rhg       1.00000  
     108  rtu1080               1080     241.97120      66.68726      29.23071     301.65182       108     s66719n29238e         0         0         0         2           sdc        95           tot       1.00000           aqu         8           rhg       1.00000  
     109  rtu1090               1090     317.00480      66.70912      29.23861     301.26230       109     s66719n29238e         0         0         0         2           sdc        96           tot       1.00000           aqu         8           rhg       1.00000  
     110  rtu1100               1100     199.52640      66.63919      28.64321     321.52066       110     s66637n28552e         0         0         0         2           sdc        97           tot       1.00000           aqu         5           rhg       1.00000  