rout_unit.def: written by SWAT+ editor v3.0.8 on 2025-07-29 21:28 for SWAT+ rev.61.0.1
      id              name  elem_tot  elements  
       1           rtu0010         1        11  
       2           rtu0020         1         4  
       3           rtu0030         1        13  
       4           rtu0040         1         7  
       5           rtu0050         1         2  
       6           rtu0060         1        19  
       7           rtu0070         1        17  
       8           rtu0080         1        20  
       9           rtu0090         1         9  
      10           rtu0100         1        18  
      11           rtu0110         1         1  
      12           rtu0120         1        10  
      13           rtu0130         1         5  
      14           rtu0140         1         8  
      15           rtu0150         1        48  
      16           rtu0160         1         6  
      17           rtu0170         1        16  
      18           rtu0180         1        41  
      19           rtu0190         1        51  
      20           rtu0200         1         3  
      21           rtu0210         1        53  
      22           rtu0220         1        52  
      23           rtu0230         1        49  
      24           rtu0240         1        38  
      25           rtu0250         1        54  
      26           rtu0260         1        43  
      27           rtu0270         1        39  
      28           rtu0280         1        46  
      29           rtu0290         1       109  
      30           rtu0300         1        47  
      31           rtu0310         1       108  
      32           rtu0320         1        55  
      33           rtu0330         1        15  
      34           rtu0340         1        12  
      35           rtu0350         1        42  
      36           rtu0360         1       111  
      37           rtu0370         1        40  
      38           rtu0380         1        44  
      39           rtu0390         1        72  
      40           rtu0400         1        58  
      41           rtu0410         1       119  
      42           rtu0420         1        21  
      43           rtu0430         1        68  
      44           rtu0440         1        62  
      45           rtu0450         1        60  
      46           rtu0460         1        57  
      47           rtu0470         1        80  
      48           rtu0480         1       136  
      49           rtu0490         1        45  
      50           rtu0500         1       113  
      51           rtu0510         1        50  
      52           rtu0520         1        59  
      53           rtu0530         1        67  
      54           rtu0540         1        78  
      55           rtu0550         1        14  
      56           rtu0560         1       142  
      57           rtu0570         1       120  
      58           rtu0580         1       150  
      59           rtu0590         1       147  
      60           rtu0600         1        56  
      61           rtu0610         1       138  
      62           rtu0620         1        61  
      63           rtu0630         1       141  
      64           rtu0640         1        79  
      65           rtu0650         1        27  
      66           rtu0660         1        23  
      67           rtu0670         1       115  
      68           rtu0680         1       121  
      69           rtu0690         1       154  
      70           rtu0700         1       140  
      71           rtu0710         1       110  
      72           rtu0720         1       116  
      73           rtu0730         1       137  
      74           rtu0740         1        70  
      75           rtu0750         1        26  
      76           rtu0760         1        22  
      77           rtu0770         1       148  
      78           rtu0780         1        74  
      79           rtu0790         1        25  
      80           rtu0800         1        24  
      81           rtu0810         1       112  
      82           rtu0820         1        63  
      83           rtu0830         1       155  
      84           rtu0840         1        69  
      85           rtu0850         1        65  
      86           rtu0860         1        28  
      87           rtu0870         1       152  
      88           rtu0880         1       146  
      89           rtu0890         1       139  
      90           rtu0900         1        77  
      91           rtu0910         1        64  
      92           rtu0920         1        66  
      93           rtu0930         1       117  
      94           rtu0940         1       145  
      95           rtu0950         1        73  
      96           rtu0960         1       153  
      97           rtu0970         1       143  
      98           rtu0980         1       151  
      99           rtu0990         1       144  
     100           rtu1000         1        76  
     101           rtu1010         1       170  
     102           rtu1020         1       114  
     103           rtu1030         1       149  
     104           rtu1040         1        90  
     105           rtu1050         1       124  
     106           rtu1060         1        75  
     107           rtu1070         1       157  
     108           rtu1080         1        85  
     109           rtu1090         1       118  
     110           rtu1100         1        71  
     111           rtu1110         1       197  
     112           rtu1120         1        82  
     113           rtu1130         1       130  
     114           rtu1140         1       202  
     115           rtu1150         1        30  
     116           rtu1160         1       169  
     117           rtu1170         1        31  
     118           rtu1180         1       122  
     119           rtu1190         1        35  
     120           rtu1200         1       160  
     121           rtu1210         1       156  
     122           rtu1220         1       131  
     123           rtu1230         1        83  
     124           rtu1240         1       227  
     125           rtu1250         1       129  
     126           rtu1260         1       132  
     127           rtu1270         1       207  
     128           rtu1280         1       123  
     129           rtu1290         1       238  
     130           rtu1300         1       126  
     131           rtu1310         1       239  
     132           rtu1320         1       249  
     133           rtu1330         1       158  
     134           rtu1340         1       128  
     135           rtu1350         1        32  
     136           rtu1360         1        29  
     137           rtu1370         1        87  
     138           rtu1380         1       159  
     139           rtu1390         1       229  
     140           rtu1400         1       230  
     141           rtu1410         1        34  
     142           rtu1420         1        89  
     143           rtu1430         1       240  
     144           rtu1440         1       171  
     145           rtu1450         1       172  
     146           rtu1460         1       244  
     147           rtu1470         1        37  
     148           rtu1480         1        84  
     149           rtu1490         1       127  
     150           rtu1500         1        88  
     151           rtu1510         1       250  
     152           rtu1520         1       173  
     153           rtu1530         1        91  
     154           rtu1540         1       228  
     155           rtu1550         1       201  
     156           rtu1560         1       174  
     157           rtu1570         1       125  
     158           rtu1580         1       251  
     159           rtu1590         1        81  
     160           rtu1600         1       242  
     161           rtu1610         1       241  
     162           rtu1620         1       194  
     163           rtu1630         1       166  
     164           rtu1640         1       133  
     165           rtu1650         1       243  
     166           rtu1660         1       162  
     167           rtu1670         1       175  
     168           rtu1680         1       165  
     169           rtu1690         1        86  
     170           rtu1700         1       161  
     171           rtu1710         1       177  
     172           rtu1720         1        36  
     173           rtu1730         1       134  
     174           rtu1740         1       226  
     175           rtu1750         1       236  
     176           rtu1760         1       163  
     177           rtu1770         1       164  
     178           rtu1780         1       199  
     179           rtu1790         1       135  
     180           rtu1800         1        92  
     181           rtu1810         1       232  
     182           rtu1820         1        95  
     183           rtu1830         1       191  
     184           rtu1840         1       246  
     185           rtu1850         1        33  
     186           rtu1860         1       252  
     187           rtu1870         1       176  
     188           rtu1880         1       235  
     189           rtu1890         1       237  
     190           rtu1900         1       231  
     191           rtu1910         1       178  
     192           rtu1920         1       277  
     193           rtu1930         1       283  
     194           rtu1940         1        94  
     195           rtu1950         1        97  
     196           rtu1960         1       254  
     197           rtu1970         1       221  
     198           rtu1980         1       245  
     199           rtu1990         1       179  
     200           rtu2000         1       189  
     201           rtu2010         1       255  
     202           rtu2020         1       223  
     203           rtu2030         1       180  
     204           rtu2040         1       253  
     205           rtu2050         1        93  
     206           rtu2060         1       290  
     207           rtu2070         1       276  
     208           rtu2080         1       216  
     209           rtu2090         1       181  
     210           rtu2100         1       285  
     211           rtu2110         1       190  
     212           rtu2120         1       274  
     213           rtu2130         1       284  
     214           rtu2140         1        96  
     215           rtu2150         1       211  
     216           rtu2160         1       219  
     217           rtu2170         1       234  
     218           rtu2180         1       212  
     219           rtu2190         1       294  
     220           rtu2200         1       233  
     221           rtu2210         1       167  
     222           rtu2220         1        98  
     223           rtu2230         1       261  
     224           rtu2240         1       168  
     225           rtu2250         1       280  
     226           rtu2260         1       257  
     227           rtu2270         1       256  
     228           rtu2280         1       278  
     229           rtu2290         1       101  
     230           rtu2300         1       293  
     231           rtu2310         1       287  
     232           rtu2320         1       291  
     233           rtu2330         1       271  
     234           rtu2340         1       269  
     235           rtu2350         1        99  
     236           rtu2360         1       105  
     237           rtu2370         1       304  
     238           rtu2380         1       183  
     239           rtu2390         1       273  
     240           rtu2400         1       204  
     241           rtu2410         1       258  
     242           rtu2420         1       182  
     243           rtu2430         1       104  
     244           rtu2440         1       102  
     245           rtu2450         1       336  
     246           rtu2460         1       286  
     247           rtu2470         1       100  
     248           rtu2480         1       289  
     249           rtu2490         1       270  
     250           rtu2500         1       193  
     251           rtu2510         1       195  
     252           rtu2520         1       300  
     253           rtu2530         1       298  
     254           rtu2540         1       318  
     255           rtu2550         1       275  
     256           rtu2560         1       317  
     257           rtu2570         1       247  
     258           rtu2580         1       248  
     259           rtu2590         1       281  
     260           rtu2600         1       313  
     261           rtu2610         1       288  
     262           rtu2620         1       107  
     263           rtu2630         1       292  
     264           rtu2640         1       192  
     265           rtu2650         1       259  
     266           rtu2660         1       272  
     267           rtu2670         1       316  
     268           rtu2680         1       312  
     269           rtu2690         1       262  
     270           rtu2700         1       206  
     271           rtu2710         1       103  
     272           rtu2720         1       225  
     273           rtu2730         1       319  
     274           rtu2740         1       220  
     275           rtu2750         1       308  
     276           rtu2760         1       224  
     277           rtu2770         1       263  
     278           rtu2780         1       310  
     279           rtu2790         1       198  
     280           rtu2800         1       296  
     281           rtu2810         1       295  
     282           rtu2820         1       297  
     283           rtu2830         1       217  
     284           rtu2840         1       320  
     285           rtu2850         1       315  
     286           rtu2860         1       222  
     287           rtu2870         1       106  
     288           rtu2880         1       299  
     289           rtu2890         1       302  
     290           rtu2900         1       185  
     291           rtu2910         1       321  
     292           rtu2920         1       342  
     293           rtu2930         1       184  
     294           rtu2940         1       309  
     295           rtu2950         1       322  
     296           rtu2960         1       347  
     297           rtu2970         1       187  
     298           rtu2980         1       305  
     299           rtu2990         1       323  
     300           rtu3000         1       340  
     301           rtu3010         1       307  
     302           rtu3020         1       324  
     303           rtu3030         1       268  
     304           rtu3040         1       265  
     305           rtu3050         1       450  
     306           rtu3060         1       215  
     307           rtu3070         1       196  
     308           rtu3080         1       326  
     309           rtu3090         1       260  
     310           rtu3100         1       218  
     311           rtu3110         1       266  
     312           rtu3120         1       209  
     313           rtu3130         1       355  
     314           rtu3140         1       301  
     315           rtu3150         1       213  
     316           rtu3160         1       303  
     317           rtu3170         1       332  
     318           rtu3180         1       306  
     319           rtu3190         1       349  
     320           rtu3200         1       267  
     321           rtu3210         1       210  
     322           rtu3220         1       348  
     323           rtu3230         1       264  
     324           rtu3240         1       364  
     325           rtu3250         1       362  
     326           rtu3260         1       311  
     327           rtu3270         1       361  
     328           rtu3280         1       208  
     329           rtu3290         1       327  
     330           rtu3300         1       343  
     331           rtu3310         1       203  
     332           rtu3320         1       350  
     333           rtu3330         1       282  
     334           rtu3340         1       368  
     335           rtu3350         1       363  
     336           rtu3360         1       314  
     337           rtu3370         1       214  
     338           rtu3380         1       344  
     339           rtu3390         1       338  
     340           rtu3400         1       365  
     341           rtu3410         1       425  
     342           rtu3420         1       345  
     343           rtu3430         1       331  
     344           rtu3440         1       427  
     345           rtu3450         1       358  
     346           rtu3460         1       354  
     347           rtu3470         1       279  
     348           rtu3480         1       452  
     349           rtu3490         1       376  
     350           rtu3500         1       200  
     351           rtu3510         1       384  
     352           rtu3520         1       451  
     353           rtu3530         1       329  
     354           rtu3540         1       372  
     355           rtu3550         1       359  
     356           rtu3560         1       473  
     357           rtu3570         1       205  
     358           rtu3580         1       396  
     359           rtu3590         1       489  
     360           rtu3600         1       428  
     361           rtu3610         1       186  
     362           rtu3620         1       474  
     363           rtu3630         1       386  
     364           rtu3640         1       325  
     365           rtu3650         1       387  
     366           rtu3660         1       352  
     367           rtu3670         1       346  
     368           rtu3680         1       377  
     369           rtu3690         1       351  
     370           rtu3700         1       393  
     371           rtu3710         1       360  
     372           rtu3720         1       375  
     373           rtu3730         1       410  
     374           rtu3740         1       453  
     375           rtu3750         1       466  
     376           rtu3760         1       379  
     377           rtu3770         1       522  
     378           rtu3780         1       357  
     379           rtu3790         1       488  
     380           rtu3800         1       383  
     381           rtu3810         1       353  
     382           rtu3820         1       417  
     383           rtu3830         1       374  
     384           rtu3840         1       414  
     385           rtu3850         1       356  
     386           rtu3860         1       418  
     387           rtu3870         1       442  
     388           rtu3880         1       454  
     389           rtu3890         1       485  
     390           rtu3900         1       188  
     391           rtu3910         1       334  
     392           rtu3920         1       392  
     393           rtu3930         1       439  
     394           rtu3940         1       402  
     395           rtu3950         1       405  
     396           rtu3960         1       394  
     397           rtu3970         1       456  
     398           rtu3980         1       398  
     399           rtu3990         1       337  
     400           rtu4000         1       404  
     401           rtu4010         1       441  
     402           rtu4020         1       462  
     403           rtu4030         1       411  
     404           rtu4040         1       431  
     405           rtu4050         1       468  
     406           rtu4060         1       412  
     407           rtu4070         1       490  
     408           rtu4080         1       457  
     409           rtu4090         1       395  
     410           rtu4100         1       463  
     411           rtu4110         1       443  
     412           rtu4120         1       406  
     413           rtu4130         1       328  
     414           rtu4140         1       487  
     415           rtu4150         1       426  
     416           rtu4160         1       458  
     417           rtu4170         1       415  
     418           rtu4180         1       504  
     419           rtu4190         1       335  
     420           rtu4200         1       460  
     421           rtu4210         1       369  
     422           rtu4220         1       437  
     423           rtu4230         1       397  
     424           rtu4240         1       407  
     425           rtu4250         1       470  
     426           rtu4260         1       518  
     427           rtu4270         1       413  
     428           rtu4280         1       409  
     429           rtu4290         1       465  
     430           rtu4300         1       483  
     431           rtu4310         1       403  
     432           rtu4320         1       367  
     433           rtu4330         1       429  
     434           rtu4340         1       366  
     435           rtu4350         1       341  
     436           rtu4360         1       408  
     437           rtu4370         1       399  
     438           rtu4380         1       467  
     439           rtu4390         1       435  
     440           rtu4400         1       401  
     441           rtu4410         1       400  
     442           rtu4420         1       461  
     443           rtu4430         1       484  
     444           rtu4440         1       339  
     445           rtu4450         1       476  
     446           rtu4460         1       505  
     447           rtu4470         1       481  
     448           rtu4480         1       330  
     449           rtu4490         1       500  
     450           rtu4500         1       480  
     451           rtu4510         1       390  
     452           rtu4520         1       438  
     453           rtu4530         1       333  
     454           rtu4540         1       419  
     455           rtu4550         1       391  
     456           rtu4560         1       455  
     457           rtu4570         1       389  
     458           rtu4580         1       378  
     459           rtu4590         1       420  
     460           rtu4600         1       464  
     461           rtu4610         1       459  
     462           rtu4620         1       491  
     463           rtu4630         1       492  
     464           rtu4640         1       416  
     465           rtu4650         1       471  
     466           rtu4660         1       370  
     467           rtu4670         1       421  
     468           rtu4680         1       479  
     469           rtu4690         1       475  
     470           rtu4700         1       422  
     471           rtu4710         1       499  
     472           rtu4720         1       478  
     473           rtu4730         1       469  
     474           rtu4740         1       521  
     475           rtu4750         1       472  
     476           rtu4760         1       448  
     477           rtu4770         1       497  
     478           rtu4780         1       482  
     479           rtu4790         1       520  
     480           rtu4800         1       388  
     481           rtu4810         1       477  
     482           rtu4820         1       445  
     483           rtu4830         1       519  
     484           rtu4840         1       494  
     485           rtu4850         1       493  
     486           rtu4860         1       434  
     487           rtu4870         1       449  
     488           rtu4880         1       423  
     489           rtu4890         1       495  
     490           rtu4900         1       548  
     491           rtu4910         1       382  
     492           rtu4920         1       496  
     493           rtu4930         1       444  
     494           rtu4940         1       523  
     495           rtu4950         1       486  
     496           rtu4960         1       545  
     497           rtu4970         1       424  
     498           rtu4980         1       385  
     499           rtu4990         1       432  
     500           rtu5000         1       498  
     501           rtu5010         1       517  
     502           rtu5020         1       529  
     503           rtu5030         1       501  
     504           rtu5040         1       535  
     505           rtu5050         1       381  
     506           rtu5060         1       373  
     507           rtu5070         1       524  
     508           rtu5080         1       544  
     509           rtu5090         1       510  
     510           rtu5100         1       534  
     511           rtu5110         1       380  
     512           rtu5120         1       447  
     513           rtu5130         1       531  
     514           rtu5140         1       371  
     515           rtu5150         1       526  
     516           rtu5160         1       525  
     517           rtu5170         1       547  
     518           rtu5180         1       528  
     519           rtu5190         1       446  
     520           rtu5200         1       503  
     521           rtu5210         1       502  
     522           rtu5220         1       433  
     523           rtu5230         1       536  
     524           rtu5240         1       549  
     525           rtu5250         1       530  
     526           rtu5260         1       507  
     527           rtu5270         1       537  
     528           rtu5280         1       508  
     529           rtu5290         1       527  
     530           rtu5300         1       546  
     531           rtu5310         1       430  
     532           rtu5320         1       511  
     533           rtu5330         1       506  
     534           rtu5340         1       554  
     535           rtu5350         1       542  
     536           rtu5360         1       512  
     537           rtu5370         1       553  
     538           rtu5380         1       557  
     539           rtu5390         1       509  
     540           rtu5400         1       538  
     541           rtu5410         1       436  
     542           rtu5420         1       539  
     543           rtu5430         1       540  
     544           rtu5440         1       543  
     545           rtu5450         1       440  
     546           rtu5460         1       513  
     547           rtu5470         1       541  
     548           rtu5480         1       552  
     549           rtu5490         1       532  
     550           rtu5500         1       550  
     551           rtu5510         1       533  
     552           rtu5520         1       556  
     553           rtu5530         1       555  
     554           rtu5540         1       551  
     555           rtu5550         1       514  
     556           rtu5560         1       515  
     557           rtu5570         1       516  
     558           rtu5580         1       558  
     559           rtu5590         1       559  
     560           rtu5600         1       560  
     561           rtu5610         1       561  
