rout_unit.ele: written by SWAT+ editor v3.0.8 on 2025-10-29 11:31 for SWAT+ rev.61.0.1
      id  name                   obj_typ    obj_id          frac               dlr  
       1  hru001                     hru         1     1.0000E+0                 0  
       2  hru002                     hru         2     1.0000E+0                 0  
       3  hru003                     hru         3     1.0000E+0                 0  
       4  hru004                     hru         4     1.0000E+0                 0  
       5  hru005                     hru         5     1.0000E+0                 0  
       6  hru006                     hru         6     1.0000E+0                 0  
       7  hru007                     hru         7     1.0000E+0                 0  
       8  hru008                     hru         8     1.0000E+0                 0  
       9  hru009                     hru         9     1.0000E+0                 0  
      10  hru010                     hru        10     1.0000E+0                 0  
      11  hru011                     hru        11     1.0000E+0                 0  
      12  hru012                     hru        12     1.0000E+0                 0  
      13  hru013                     hru        13     1.0000E+0                 0  
      14  hru014                     hru        14     1.0000E+0                 0  
      15  hru015                     hru        15     1.0000E+0                 0  
      16  hru016                     hru        16     1.0000E+0                 0  
      17  hru017                     hru        17     1.0000E+0                 0  
      18  hru018                     hru        18     1.0000E+0                 0  
      19  hru019                     hru        19     1.0000E+0                 0  
      20  hru020                     hru        20     1.0000E+0                 0  
      21  hru021                     hru        21     1.0000E+0                 0  
      22  hru022                     hru        22     1.0000E+0                 0  
      23  hru023                     hru        23     1.0000E+0                 0  
      24  hru024                     hru        24     1.0000E+0                 0  
      25  hru025                     hru        25     1.0000E+0                 0  
      26  hru026                     hru        26     1.0000E+0                 0  
      27  hru027                     hru        27     1.0000E+0                 0  
      28  hru028                     hru        28     1.0000E+0                 0  
      29  hru029                     hru        29     1.0000E+0                 0  
      30  hru030                     hru        30     1.0000E+0                 0  
      31  hru031                     hru        31     1.0000E+0                 0  
      32  hru032                     hru        32     1.0000E+0                 0  
      33  hru033                     hru        33     1.0000E+0                 0  
      34  hru034                     hru        34     1.0000E+0                 0  
      35  hru035                     hru        35     1.0000E+0                 0  
      36  hru036                     hru        36     1.0000E+0                 0  
      37  hru037                     hru        37     1.0000E+0                 0  
      38  hru038                     hru        38     1.0000E+0                 0  
      39  hru039                     hru        39     1.0000E+0                 0  
      40  hru040                     hru        40     1.0000E+0                 0  
      41  hru041                     hru        41     1.0000E+0                 0  
      42  hru042                     hru        42     1.0000E+0                 0  
      43  hru043                     hru        43     1.0000E+0                 0  
      44  hru044                     hru        44     1.0000E+0                 0  
      45  hru045                     hru        45     1.0000E+0                 0  
      46  hru046                     hru        46     1.0000E+0                 0  
      47  hru047                     hru        47     1.0000E+0                 0  
      48  hru048                     hru        48     1.0000E+0                 0  
      49  hru049                     hru        49     1.0000E+0                 0  
      50  hru050                     hru        50     1.0000E+0                 0  
      51  hru051                     hru        51     1.0000E+0                 0  
      52  hru052                     hru        52     1.0000E+0                 0  
      53  hru053                     hru        53     1.0000E+0                 0  
      54  hru054                     hru        54     1.0000E+0                 0  
      55  hru055                     hru        55     1.0000E+0                 0  
      56  hru056                     hru        56     1.0000E+0                 0  
      57  hru057                     hru        57     1.0000E+0                 0  
      58  hru058                     hru        58     1.0000E+0                 0  
      59  hru059                     hru        59     1.0000E+0                 0  
      60  hru060                     hru        60     1.0000E+0                 0  
      61  hru061                     hru        61     1.0000E+0                 0  
      62  hru062                     hru        62     1.0000E+0                 0  
      63  hru063                     hru        63     1.0000E+0                 0  
      64  hru064                     hru        64     1.0000E+0                 0  
      65  hru065                     hru        65     1.0000E+0                 0  
      66  hru066                     hru        66     1.0000E+0                 0  
      67  hru067                     hru        67     1.0000E+0                 0  
      68  hru068                     hru        68     1.0000E+0                 0  
      69  hru069                     hru        69     1.0000E+0                 0  
      70  hru070                     hru        70     1.0000E+0                 0  
      71  hru071                     hru        71     1.0000E+0                 0  
      72  hru072                     hru        72     1.0000E+0                 0  
      73  hru073                     hru        73     1.0000E+0                 0  
      74  hru074                     hru        74     1.0000E+0                 0  
      75  hru075                     hru        75     1.0000E+0                 0  
      76  hru076                     hru        76     1.0000E+0                 0  
      77  hru077                     hru        77     1.0000E+0                 0  
      78  hru078                     hru        78     1.0000E+0                 0  
      79  hru079                     hru        79     1.0000E+0                 0  
      80  hru080                     hru        80     1.0000E+0                 0  
      81  hru081                     hru        81     1.0000E+0                 0  
      82  hru082                     hru        82     1.0000E+0                 0  
      83  hru083                     hru        83     1.0000E+0                 0  
      84  hru084                     hru        84     1.0000E+0                 0  
      85  hru085                     hru        85     1.0000E+0                 0  
      86  hru086                     hru        86     1.0000E+0                 0  
      87  hru087                     hru        87     1.0000E+0                 0  
      88  hru088                     hru        88     1.0000E+0                 0  
      89  hru089                     hru        89     1.0000E+0                 0  
      90  hru090                     hru        90     1.0000E+0                 0  
      91  hru091                     hru        91     1.0000E+0                 0  
      92  hru092                     hru        92     1.0000E+0                 0  
      93  hru093                     hru        93     1.0000E+0                 0  
      94  hru094                     hru        94     1.0000E+0                 0  
      95  hru095                     hru        95     1.0000E+0                 0  
      96  hru096                     hru        96     1.0000E+0                 0  
      97  hru097                     hru        97     1.0000E+0                 0  
      98  hru098                     hru        98     1.0000E+0                 0  
      99  hru099                     hru        99     1.0000E+0                 0  
     100  hru100                     hru       100     1.0000E+0                 0  
     101  hru101                     hru       101     1.0000E+0                 0  
     102  hru102                     hru       102     1.0000E+0                 0  
     103  hru103                     hru       103     1.0000E+0                 0  
     104  hru104                     hru       104     1.0000E+0                 0  
     105  hru105                     hru       105     1.0000E+0                 0  
     106  hru106                     hru       106     1.0000E+0                 0  
     107  hru107                     hru       107     1.0000E+0                 0  
     108  hru108                     hru       108     1.0000E+0                 0  
     109  hru109                     hru       109     1.0000E+0                 0  
     110  hru110                     hru       110     1.0000E+0                 0  
     111  hru111                     hru       111     1.0000E+0                 0  
     112  hru112                     hru       112     1.0000E+0                 0  
     113  hru113                     hru       113     1.0000E+0                 0  
     114  hru114                     hru       114     1.0000E+0                 0  
     115  hru115                     hru       115     1.0000E+0                 0  
     116  hru116                     hru       116     1.0000E+0                 0  
     117  hru117                     hru       117     1.0000E+0                 0  
     118  hru118                     hru       118     1.0000E+0                 0  
     119  hru119                     hru       119     1.0000E+0                 0  
     120  hru120                     hru       120     1.0000E+0                 0  
     121  hru121                     hru       121     1.0000E+0                 0  
     122  hru122                     hru       122     1.0000E+0                 0  
     123  hru123                     hru       123     1.0000E+0                 0  
     124  hru124                     hru       124     1.0000E+0                 0  
     125  hru125                     hru       125     1.0000E+0                 0  
     126  hru126                     hru       126     1.0000E+0                 0  
     127  hru127                     hru       127     1.0000E+0                 0  
     128  hru128                     hru       128     1.0000E+0                 0  
     129  hru129                     hru       129     1.0000E+0                 0  
     130  hru130                     hru       130     1.0000E+0                 0  
     131  hru131                     hru       131     1.0000E+0                 0  
     132  hru132                     hru       132     1.0000E+0                 0  
     133  hru133                     hru       133     1.0000E+0                 0  
     134  hru134                     hru       134     1.0000E+0                 0  
     135  hru135                     hru       135     1.0000E+0                 0  
     136  hru136                     hru       136     1.0000E+0                 0  
     137  hru137                     hru       137     1.0000E+0                 0  
     138  hru138                     hru       138     1.0000E+0                 0  
     139  hru139                     hru       139     1.0000E+0                 0  
     140  hru140                     hru       140     1.0000E+0                 0  
     141  hru141                     hru       141     1.0000E+0                 0  
     142  hru142                     hru       142     1.0000E+0                 0  
     143  hru143                     hru       143     1.0000E+0                 0  
     144  hru144                     hru       144     1.0000E+0                 0  
     145  hru145                     hru       145     1.0000E+0                 0  
     146  hru146                     hru       146     1.0000E+0                 0  
     147  hru147                     hru       147     1.0000E+0                 0  
     148  hru148                     hru       148     1.0000E+0                 0  
     149  hru149                     hru       149     1.0000E+0                 0  
     150  hru150                     hru       150     1.0000E+0                 0  
     151  hru151                     hru       151     1.0000E+0                 0  
     152  hru152                     hru       152     1.0000E+0                 0  
     153  hru153                     hru       153     1.0000E+0                 0  
     154  hru154                     hru       154     1.0000E+0                 0  
     155  hru155                     hru       155     1.0000E+0                 0  
     156  hru156                     hru       156     1.0000E+0                 0  
     157  hru157                     hru       157     1.0000E+0                 0  
     158  hru158                     hru       158     1.0000E+0                 0  
     159  hru159                     hru       159     1.0000E+0                 0  
     160  hru160                     hru       160     1.0000E+0                 0  
     161  hru161                     hru       161     1.0000E+0                 0  
     162  hru162                     hru       162     1.0000E+0                 0  
     163  hru163                     hru       163     1.0000E+0                 0  
     164  hru164                     hru       164     1.0000E+0                 0  
     165  hru165                     hru       165     1.0000E+0                 0  
     166  hru166                     hru       166     1.0000E+0                 0  
     167  hru167                     hru       167     1.0000E+0                 0  
     168  hru168                     hru       168     1.0000E+0                 0  
     169  hru169                     hru       169     1.0000E+0                 0  
     170  hru170                     hru       170     1.0000E+0                 0  
     171  hru171                     hru       171     1.0000E+0                 0  
     172  hru172                     hru       172     1.0000E+0                 0  
     173  hru173                     hru       173     1.0000E+0                 0  
     174  hru174                     hru       174     1.0000E+0                 0  
     175  hru175                     hru       175     1.0000E+0                 0  
     176  hru176                     hru       176     1.0000E+0                 0  
     177  hru177                     hru       177     1.0000E+0                 0  
     178  hru178                     hru       178     1.0000E+0                 0  
     179  hru179                     hru       179     1.0000E+0                 0  
     180  hru180                     hru       180     1.0000E+0                 0  
     181  hru181                     hru       181     1.0000E+0                 0  
     182  hru182                     hru       182     1.0000E+0                 0  
     183  hru183                     hru       183     1.0000E+0                 0  
     184  hru184                     hru       184     1.0000E+0                 0  
     185  hru185                     hru       185     1.0000E+0                 0  
     186  hru186                     hru       186     1.0000E+0                 0  
     187  hru187                     hru       187     1.0000E+0                 0  
     188  hru188                     hru       188     1.0000E+0                 0  
     189  hru189                     hru       189     1.0000E+0                 0  
     190  hru190                     hru       190     1.0000E+0                 0  
     191  hru191                     hru       191     1.0000E+0                 0  
     192  hru192                     hru       192     1.0000E+0                 0  
     193  hru193                     hru       193     1.0000E+0                 0  
     194  hru194                     hru       194     1.0000E+0                 0  
     195  hru195                     hru       195     1.0000E+0                 0  
     196  hru196                     hru       196     1.0000E+0                 0  
     197  hru197                     hru       197     1.0000E+0                 0  
     198  hru198                     hru       198     1.0000E+0                 0  
     199  hru199                     hru       199     1.0000E+0                 0  
     200  hru200                     hru       200     1.0000E+0                 0  
     201  hru201                     hru       201     1.0000E+0                 0  
     202  hru202                     hru       202     1.0000E+0                 0  
     203  hru203                     hru       203     1.0000E+0                 0  
     204  hru204                     hru       204     1.0000E+0                 0  
     205  hru205                     hru       205     1.0000E+0                 0  
     206  hru206                     hru       206     1.0000E+0                 0  
     207  hru207                     hru       207     1.0000E+0                 0  
     208  hru208                     hru       208     1.0000E+0                 0  
     209  hru209                     hru       209     1.0000E+0                 0  
     210  hru210                     hru       210     1.0000E+0                 0  
     211  hru211                     hru       211     1.0000E+0                 0  
     212  hru212                     hru       212     1.0000E+0                 0  
     213  hru213                     hru       213     1.0000E+0                 0  
     214  hru214                     hru       214     1.0000E+0                 0  
     215  hru215                     hru       215     1.0000E+0                 0  
     216  hru216                     hru       216     1.0000E+0                 0  
     217  hru217                     hru       217     1.0000E+0                 0  
     218  hru218                     hru       218     1.0000E+0                 0  
     219  hru219                     hru       219     1.0000E+0                 0  
     220  hru220                     hru       220     1.0000E+0                 0  
     221  hru221                     hru       221     1.0000E+0                 0  
     222  hru222                     hru       222     1.0000E+0                 0  
     223  hru223                     hru       223     1.0000E+0                 0  
     224  hru224                     hru       224     1.0000E+0                 0  
     225  hru225                     hru       225     1.0000E+0                 0  
     226  hru226                     hru       226     1.0000E+0                 0  
     227  hru227                     hru       227     1.0000E+0                 0  
     228  hru228                     hru       228     1.0000E+0                 0  
     229  hru229                     hru       229     1.0000E+0                 0  
     230  hru230                     hru       230     1.0000E+0                 0  
     231  hru231                     hru       231     1.0000E+0                 0  
     232  hru232                     hru       232     1.0000E+0                 0  
     233  hru233                     hru       233     1.0000E+0                 0  
     234  hru234                     hru       234     1.0000E+0                 0  
     235  hru235                     hru       235     1.0000E+0                 0  
     236  hru236                     hru       236     1.0000E+0                 0  
     237  hru237                     hru       237     1.0000E+0                 0  
     238  hru238                     hru       238     1.0000E+0                 0  
     239  hru239                     hru       239     1.0000E+0                 0  
     240  hru240                     hru       240     1.0000E+0                 0  
     241  hru241                     hru       241     1.0000E+0                 0  
     242  hru242                     hru       242     1.0000E+0                 0  
     243  hru243                     hru       243     1.0000E+0                 0  
     244  hru244                     hru       244     1.0000E+0                 0  
     245  hru245                     hru       245     1.0000E+0                 0  
     246  hru246                     hru       246     1.0000E+0                 0  
     247  hru247                     hru       247     1.0000E+0                 0  
     248  hru248                     hru       248     1.0000E+0                 0  
     249  hru249                     hru       249     1.0000E+0                 0  
     250  hru250                     hru       250     1.0000E+0                 0  
     251  hru251                     hru       251     1.0000E+0                 0  
     252  hru252                     hru       252     1.0000E+0                 0  
     253  hru253                     hru       253     1.0000E+0                 0  
     254  hru254                     hru       254     1.0000E+0                 0  
     255  hru255                     hru       255     1.0000E+0                 0  
     256  hru256                     hru       256     1.0000E+0                 0  
     257  hru257                     hru       257     1.0000E+0                 0  
     258  hru258                     hru       258     1.0000E+0                 0  
     259  hru259                     hru       259     1.0000E+0                 0  
     260  hru260                     hru       260     1.0000E+0                 0  
     261  hru261                     hru       261     1.0000E+0                 0  
     262  hru262                     hru       262     1.0000E+0                 0  
     263  hru263                     hru       263     1.0000E+0                 0  
     264  hru264                     hru       264     1.0000E+0                 0  
     265  hru265                     hru       265     1.0000E+0                 0  
     266  hru266                     hru       266     1.0000E+0                 0  
     267  hru267                     hru       267     1.0000E+0                 0  
     268  hru268                     hru       268     1.0000E+0                 0  
     269  hru269                     hru       269     1.0000E+0                 0  
     270  hru270                     hru       270     1.0000E+0                 0  
     271  hru271                     hru       271     1.0000E+0                 0  
     272  hru272                     hru       272     1.0000E+0                 0  
     273  hru273                     hru       273     1.0000E+0                 0  
     274  hru274                     hru       274     1.0000E+0                 0  
     275  hru275                     hru       275     1.0000E+0                 0  
     276  hru276                     hru       276     1.0000E+0                 0  
     277  hru277                     hru       277     1.0000E+0                 0  
     278  hru278                     hru       278     1.0000E+0                 0  
     279  hru279                     hru       279     1.0000E+0                 0  
     280  hru280                     hru       280     1.0000E+0                 0  
     281  hru281                     hru       281     1.0000E+0                 0  
     282  hru282                     hru       282     1.0000E+0                 0  
     283  hru283                     hru       283     1.0000E+0                 0  
     284  hru284                     hru       284     1.0000E+0                 0  
     285  hru285                     hru       285     1.0000E+0                 0  
     286  hru286                     hru       286     1.0000E+0                 0  
     287  hru287                     hru       287     1.0000E+0                 0  
     288  hru288                     hru       288     1.0000E+0                 0  
     289  hru289                     hru       289     1.0000E+0                 0  
     290  hru290                     hru       290     1.0000E+0                 0  
     291  hru291                     hru       291     1.0000E+0                 0  
     292  hru292                     hru       292     1.0000E+0                 0  
     293  hru293                     hru       293     1.0000E+0                 0  
     294  hru294                     hru       294     1.0000E+0                 0  
     295  hru295                     hru       295     1.0000E+0                 0  
     296  hru296                     hru       296     1.0000E+0                 0  
     297  hru297                     hru       297     1.0000E+0                 0  
     298  hru298                     hru       298     1.0000E+0                 0  
     299  hru299                     hru       299     1.0000E+0                 0  
     300  hru300                     hru       300     1.0000E+0                 0  
     301  hru301                     hru       301     1.0000E+0                 0  
     302  hru302                     hru       302     1.0000E+0                 0  
     303  hru303                     hru       303     1.0000E+0                 0  
     304  hru304                     hru       304     1.0000E+0                 0  
     305  hru305                     hru       305     1.0000E+0                 0  
     306  hru306                     hru       306     1.0000E+0                 0  
     307  hru307                     hru       307     1.0000E+0                 0  
     308  hru308                     hru       308     1.0000E+0                 0  
     309  hru309                     hru       309     1.0000E+0                 0  
     310  hru310                     hru       310     1.0000E+0                 0  
     311  hru311                     hru       311     1.0000E+0                 0  
     312  hru312                     hru       312     1.0000E+0                 0  
     313  hru313                     hru       313     1.0000E+0                 0  
     314  hru314                     hru       314     1.0000E+0                 0  
     315  hru315                     hru       315     1.0000E+0                 0  
     316  hru316                     hru       316     1.0000E+0                 0  
     317  hru317                     hru       317     1.0000E+0                 0  
     318  hru318                     hru       318     1.0000E+0                 0  
     319  hru319                     hru       319     1.0000E+0                 0  
     320  hru320                     hru       320     1.0000E+0                 0  
     321  hru321                     hru       321     1.0000E+0                 0  
     322  hru322                     hru       322     1.0000E+0                 0  
     323  hru323                     hru       323     1.0000E+0                 0  
     324  hru324                     hru       324     1.0000E+0                 0  
     325  hru325                     hru       325     1.0000E+0                 0  
     326  hru326                     hru       326     1.0000E+0                 0  
     327  hru327                     hru       327     1.0000E+0                 0  
     328  hru328                     hru       328     1.0000E+0                 0  
     329  hru329                     hru       329     1.0000E+0                 0  
     330  hru330                     hru       330     1.0000E+0                 0  
     331  hru331                     hru       331     1.0000E+0                 0  
     332  hru332                     hru       332     1.0000E+0                 0  
     333  hru333                     hru       333     1.0000E+0                 0  
     334  hru334                     hru       334     1.0000E+0                 0  
     335  hru335                     hru       335     1.0000E+0                 0  
     336  hru336                     hru       336     1.0000E+0                 0  
     337  hru337                     hru       337     1.0000E+0                 0  
     338  hru338                     hru       338     1.0000E+0                 0  
     339  hru339                     hru       339     1.0000E+0                 0  
     340  hru340                     hru       340     1.0000E+0                 0  
     341  hru341                     hru       341     1.0000E+0                 0  
     342  hru342                     hru       342     1.0000E+0                 0  
     343  hru343                     hru       343     1.0000E+0                 0  
     344  hru344                     hru       344     1.0000E+0                 0  
     345  hru345                     hru       345     1.0000E+0                 0  
     346  hru346                     hru       346     1.0000E+0                 0  