rout_unit.def: written by SWAT+ editor v3.0.8 on 2025-10-29 11:31 for SWAT+ rev.61.0.1
      id              name  elem_tot  elements  
       1           rtu0010         1        11  
       2           rtu0020         1         4  
       3           rtu0030         1        13  
       4           rtu0040         1         7  
       5           rtu0050         1         2  
       6           rtu0060         1        19  
       7           rtu0070         1        17  
       8           rtu0080         1        20  
       9           rtu0090         1         9  
      10           rtu0100         1        18  
      11           rtu0110         1         1  
      12           rtu0120         1        10  
      13           rtu0130         1         5  
      14           rtu0140         1         8  
      15           rtu0150         1        56  
      16           rtu0160         1         6  
      17           rtu0170         1        16  
      18           rtu0180         1        47  
      19           rtu0190         1        62  
      20           rtu0200         1         3  
      21           rtu0210         1        64  
      22           rtu0220         1        63  
      23           rtu0230         1        57  
      24           rtu0240         1        61  
      25           rtu0250         1        60  
      26           rtu0260         1        44  
      27           rtu0270         1        65  
      28           rtu0280         1        50  
      29           rtu0290         1        45  
      30           rtu0300         1        53  
      31           rtu0310         1       141  
      32           rtu0320         1        54  
      33           rtu0330         1        59  
      34           rtu0340         1       140  
      35           rtu0350         1        66  
      36           rtu0360         1        15  
      37           rtu0370         1        12  
      38           rtu0380         1        49  
      39           rtu0390         1       143  
      40           rtu0400         1       146  
      41           rtu0410         1       144  
      42           rtu0420         1       148  
      43           rtu0430         1       145  
      44           rtu0440         1        46  
      45           rtu0450         1        48  
      46           rtu0460         1        51  
      47           rtu0470         1        90  
      48           rtu0480         1        69  
      49           rtu0490         1       157  
      50           rtu0500         1        21  
      51           rtu0510         1        88  
      52           rtu0520         1        81  
      53           rtu0530         1        83  
      54           rtu0540         1        73  
      55           rtu0550         1        71  
      56           rtu0560         1        68  
      57           rtu0570         1       100  
      58           rtu0580         1       174  
      59           rtu0590         1        55  
      60           rtu0600         1        52  
      61           rtu0610         1       149  
      62           rtu0620         1        58  
      63           rtu0630         1        70  
      64           rtu0640         1        78  
      65           rtu0650         1        79  
      66           rtu0660         1        80  
      67           rtu0670         1        82  
      68           rtu0680         1        96  
      69           rtu0690         1        14  
      70           rtu0700         1       180  
      71           rtu0710         1       158  
      72           rtu0720         1       190  
      73           rtu0730         1       187  
      74           rtu0740         1        67  
      75           rtu0750         1       176  
      76           rtu0760         1        72  
      77           rtu0770         1       179  
      78           rtu0780         1        99  
      79           rtu0790         1        27  
      80           rtu0800         1        23  
      81           rtu0810         1       151  
      82           rtu0820         1       159  
      83           rtu0830         1       198  
      84           rtu0840         1       178  
      85           rtu0850         1       186  
      86           rtu0860         1       184  
      87           rtu0870         1       142  
      88           rtu0880         1       152  
      89           rtu0890         1       175  
      90           rtu0900         1        85  
      91           rtu0910         1        89  
      92           rtu0920         1        87  
      93           rtu0930         1        26  
      94           rtu0940         1        22  
      95           rtu0950         1       188  
      96           rtu0960         1        92  
      97           rtu0970         1        25  
      98           rtu0980         1        24  
      99           rtu0990         1        28  
     100           rtu1000         1        31  
     101           rtu1010         1       147  
     102           rtu1020         1        74  
     103           rtu1030         1       199  
     104           rtu1040         1        84  
     105           rtu1050         1        76  
     106           rtu1060         1        29  
     107           rtu1070         1       194  
     108           rtu1080         1       185  
     109           rtu1090         1       177  
     110           rtu1100         1       102  
     111           rtu1110         1       101  
     112           rtu1120         1        95  
     113           rtu1130         1        75  
     114           rtu1140         1        77  
     115           rtu1150         1       154  
     116           rtu1160         1       155  
     117           rtu1170         1       153  
     118           rtu1180         1       183  
     119           rtu1190         1        91  
     120           rtu1200         1       196  
     121           rtu1210         1       181  
     122           rtu1220         1       197  
     123           rtu1230         1       195  
     124           rtu1240         1       193  
     125           rtu1250         1       182  
     126           rtu1260         1        94  
     127           rtu1270         1        98  
     128           rtu1280         1        97  
     129           rtu1290         1       218  
     130           rtu1300         1       220  
     131           rtu1310         1       221  
     132           rtu1320         1       150  
     133           rtu1330         1       192  
     134           rtu1340         1       191  
     135           rtu1350         1       189  
     136           rtu1360         1       112  
     137           rtu1370         1       162  
     138           rtu1380         1        93  
     139           rtu1390         1       201  
     140           rtu1400         1       107  
     141           rtu1410         1       156  
     142           rtu1420         1        86  
     143           rtu1430         1       251  
     144           rtu1440         1       104  
     145           rtu1450         1       168  
     146           rtu1460         1       277  
     147           rtu1470         1       274  
     148           rtu1480         1       258  
     149           rtu1490         1        32  
     150           rtu1500         1       217  
     151           rtu1510         1       216  
     152           rtu1520         1       215  
     153           rtu1530         1        35  
     154           rtu1540         1       160  
     155           rtu1550         1        39  
     156           rtu1560         1       206  
     157           rtu1570         1       205  
     158           rtu1580         1       204  
     159           rtu1590         1       200  
     160           rtu1600         1       169  
     161           rtu1610         1       105  
     162           rtu1620         1       305  
     163           rtu1630         1       167  
     164           rtu1640         1       170  
     165           rtu1650         1       263  
     166           rtu1660         1       161  
     167           rtu1670         1       316  
     168           rtu1680         1       164  
     169           rtu1690         1       317  
     170           rtu1700         1       329  
     171           rtu1710         1       331  
     172           rtu1720         1       330  
     173           rtu1730         1       202  
     174           rtu1740         1       166  
     175           rtu1750         1        36  
     176           rtu1760         1        30  
     177           rtu1770         1        33  
     178           rtu1780         1        34  
     179           rtu1790         1       109  
     180           rtu1800         1       203  
     181           rtu1810         1       307  
     182           rtu1820         1       308  
     183           rtu1830         1        38  
     184           rtu1840         1        42  
     185           rtu1850         1        40  
     186           rtu1860         1       111  
     187           rtu1870         1       318  
     188           rtu1880         1       219  
     189           rtu1890         1       222  
     190           rtu1900         1       322  
     191           rtu1910         1        43  
     192           rtu1920         1       106  
     193           rtu1930         1       165  
     194           rtu1940         1       110  
     195           rtu1950         1       332  
     196           rtu1960         1       223  
     197           rtu1970         1       115  
     198           rtu1980         1       119  
     199           rtu1990         1       113  
     200           rtu2000         1       306  
     201           rtu2010         1       257  
     202           rtu2020         1       224  
     203           rtu2030         1       163  
     204           rtu2040         1       333  
     205           rtu2050         1       103  
     206           rtu2060         1       320  
     207           rtu2070         1       319  
     208           rtu2080         1       248  
     209           rtu2090         1       212  
     210           rtu2100         1       171  
     211           rtu2110         1       321  
     212           rtu2120         1       208  
     213           rtu2130         1       225  
     214           rtu2140         1       211  
     215           rtu2150         1       108  
     216           rtu2160         1       207  
     217           rtu2170         1       227  
     218           rtu2180         1        41  
     219           rtu2190         1       172  
     220           rtu2200         1       304  
     221           rtu2210         1       303  
     222           rtu2220         1       314  
     223           rtu2230         1       209  
     224           rtu2240         1       210  
     225           rtu2250         1       253  
     226           rtu2260         1       173  
     227           rtu2270         1       114  
     228           rtu2280         1       310  
     229           rtu2290         1       118  
     230           rtu2300         1       254  
     231           rtu2310         1       255  
     232           rtu2320         1       245  
     233           rtu2330         1       324  
     234           rtu2340         1        37  
     235           rtu2350         1       334  
     236           rtu2360         1       226  
     237           rtu2370         1       313  
     238           rtu2380         1       315  
     239           rtu2390         1       309  
     240           rtu2400         1       228  
     241           rtu2410         1       363  
     242           rtu2420         1       373  
     243           rtu2430         1       117  
     244           rtu2440         1       122  
     245           rtu2450         1       128  
     246           rtu2460         1       126  
     247           rtu2470         1       336  
     248           rtu2480         1       291  
     249           rtu2490         1       323  
     250           rtu2500         1       325  
     251           rtu2510         1       327  
     252           rtu2520         1       229  
     253           rtu2530         1       243  
     254           rtu2540         1       337  
     255           rtu2550         1       302  
     256           rtu2560         1       296  
     257           rtu2570         1       230  
     258           rtu2580         1       335  
     259           rtu2590         1       116  
     260           rtu2600         1       121  
     261           rtu2610         1       123  
     262           rtu2620         1       380  
     263           rtu2630         1       362  
     264           rtu2640         1       283  
     265           rtu2650         1       231  
     266           rtu2660         1       234  
     267           rtu2670         1       233  
     268           rtu2680         1       375  
     269           rtu2690         1       244  
     270           rtu2700         1       360  
     271           rtu2710         1       374  
     272           rtu2720         1       120  
     273           rtu2730         1       273  
     274           rtu2740         1       301  
     275           rtu2750         1       297  
     276           rtu2760         1       287  
     277           rtu2770         1       312  
     278           rtu2780         1       278  
     279           rtu2790         1       386  
     280           rtu2800         1       311  
     281           rtu2810         1       213  
     282           rtu2820         1       124  
     283           rtu2830         1       129  
     284           rtu2840         1       134  
     285           rtu2850         1       347  
     286           rtu2860         1       350  
     287           rtu2870         1       345  
     288           rtu2880         1       214  
     289           rtu2890         1       366  
     290           rtu2900         1       367  
     291           rtu2910         1       368  
     292           rtu2920         1       339  
     293           rtu2930         1       338  
     294           rtu2940         1       364  
     295           rtu2950         1       130  
     296           rtu2960         1       384  
     297           rtu2970         1       377  
     298           rtu2980         1       382  
     299           rtu2990         1       385  
     300           rtu3000         1       381  
     301           rtu3010         1       357  
     302           rtu3020         1       355  
     303           rtu3030         1       125  
     304           rtu3040         1       136  
     305           rtu3050         1       401  
     306           rtu3060         1       235  
     307           rtu3070         1       359  
     308           rtu3080         1       260  
     309           rtu3090         1       340  
     310           rtu3100         1       342  
     311           rtu3110         1       343  
     312           rtu3120         1       232  
     313           rtu3130         1       135  
     314           rtu3140         1       133  
     315           rtu3150         1       131  
     316           rtu3160         1       438  
     317           rtu3170         1       446  
     318           rtu3180         1       442  
     319           rtu3190         1       376  
     320           rtu3200         1       127  
     321           rtu3210         1       379  
     322           rtu3220         1       356  
     323           rtu3230         1       247  
     324           rtu3240         1       249  
     325           rtu3250         1       393  
     326           rtu3260         1       390  
     327           rtu3270         1       399  
     328           rtu3280         1       392  
     329           rtu3290         1       394  
     330           rtu3300         1       395  
     331           rtu3310         1       419  
     332           rtu3320         1       361  
     333           rtu3330         1       418  
     334           rtu3340         1       326  
     335           rtu3350         1       328  
     336           rtu3360         1       369  
     337           rtu3370         1       371  
     338           rtu3380         1       370  
     339           rtu3390         1       414  
     340           rtu3400         1       378  
     341           rtu3410         1       138  
     342           rtu3420         1       383  
     343           rtu3430         1       246  
     344           rtu3440         1       341  
     345           rtu3450         1       358  
     346           rtu3460         1       417  
     347           rtu3470         1       412  
     348           rtu3480         1       346  
     349           rtu3490         1       271  
     350           rtu3500         1       268  
     351           rtu3510         1       262  
     352           rtu3520         1       132  
     353           rtu3530         1       139  
     354           rtu3540         1       300  
     355           rtu3550         1       420  
     356           rtu3560         1       289  
     357           rtu3570         1       290  
     358           rtu3580         1       293  
     359           rtu3590         1       406  
     360           rtu3600         1       408  
     361           rtu3610         1       299  
     362           rtu3620         1       348  
     363           rtu3630         1       409  
     364           rtu3640         1       252  
     365           rtu3650         1       388  
     366           rtu3660         1       387  
     367           rtu3670         1       389  
     368           rtu3680         1       295  
     369           rtu3690         1       298  
     370           rtu3700         1       285  
     371           rtu3710         1       421  
     372           rtu3720         1       416  
     373           rtu3730         1       292  
     374           rtu3740         1       137  
     375           rtu3750         1       391  
     376           rtu3760         1       397  
     377           rtu3770         1       237  
     378           rtu3780         1       425  
     379           rtu3790         1       422  
     380           rtu3800         1       451  
     381           rtu3810         1       236  
     382           rtu3820         1       407  
     383           rtu3830         1       410  
     384           rtu3840         1       413  
     385           rtu3850         1       423  
     386           rtu3860         1       460  
     387           rtu3870         1       239  
     388           rtu3880         1       240  
     389           rtu3890         1       241  
     390           rtu3900         1       403  
     391           rtu3910         1       424  
     392           rtu3920         1       447  
     393           rtu3930         1       448  
     394           rtu3940         1       405  
     395           rtu3950         1       426  
     396           rtu3960         1       354  
     397           rtu3970         1       351  
     398           rtu3980         1       601  
     399           rtu3990         1       604  
     400           rtu4000         1       603  
     401           rtu4010         1       281  
     402           rtu4020         1       250  
     403           rtu4030         1       428  
     404           rtu4040         1       344  
     405           rtu4050         1       286  
     406           rtu4060         1       352  
     407           rtu4070         1       276  
     408           rtu4080         1       275  
     409           rtu4090         1       272  
     410           rtu4100         1       270  
     411           rtu4110         1       266  
     412           rtu4120         1       468  
     413           rtu4130         1       396  
     414           rtu4140         1       294  
     415           rtu4150         1       288  
     416           rtu4160         1       282  
     417           rtu4170         1       284  
     418           rtu4180         1       279  
     419           rtu4190         1       398  
     420           rtu4200         1       400  
     421           rtu4210         1       402  
     422           rtu4220         1       434  
     423           rtu4230         1       404  
     424           rtu4240         1       462  
     425           rtu4250         1       353  
     426           rtu4260         1       267  
     427           rtu4270         1       461  
     428           rtu4280         1       349  
     429           rtu4290         1       479  
     430           rtu4300         1       477  
     431           rtu4310         1       411  
     432           rtu4320         1       475  
     433           rtu4330         1       476  
     434           rtu4340         1       474  
     435           rtu4350         1       265  
     436           rtu4360         1       429  
     437           rtu4370         1       452  
     438           rtu4380         1       259  
     439           rtu4390         1       463  
     440           rtu4400         1       372  
     441           rtu4410         1       484  
     442           rtu4420         1       478  
     443           rtu4430         1       415  
     444           rtu4440         1       280  
     445           rtu4450         1       453  
     446           rtu4460         1       454  
     447           rtu4470         1       455  
     448           rtu4480         1       443  
     449           rtu4490         1       449  
     450           rtu4500         1       480  
     451           rtu4510         1       570  
     452           rtu4520         1       456  
     453           rtu4530         1       457  
     454           rtu4540         1       458  
     455           rtu4550         1       445  
     456           rtu4560         1       433  
     457           rtu4570         1       572  
     458           rtu4580         1       578  
     459           rtu4590         1       574  
     460           rtu4600         1       471  
     461           rtu4610         1       467  
     462           rtu4620         1       365  
     463           rtu4630         1       605  
     464           rtu4640         1       493  
     465           rtu4650         1       256  
     466           rtu4660         1       264  
     467           rtu4670         1       269  
     468           rtu4680         1       509  
     469           rtu4690         1       506  
     470           rtu4700         1       504  
     471           rtu4710         1       602  
     472           rtu4720         1       431  
     473           rtu4730         1       489  
     474           rtu4740         1       472  
     475           rtu4750         1       636  
     476           rtu4760         1       261  
     477           rtu4770         1       521  
     478           rtu4780         1       520  
     479           rtu4790         1       523  
     480           rtu4800         1       655  
     481           rtu4810         1       573  
     482           rtu4820         1       575  
     483           rtu4830         1       577  
     484           rtu4840         1       238  
     485           rtu4850         1       638  
     486           rtu4860         1       507  
     487           rtu4870         1       427  
     488           rtu4880         1       508  
     489           rtu4890         1       465  
     490           rtu4900         1       459  
     491           rtu4910         1       494  
     492           rtu4920         1       464  
     493           rtu4930         1       517  
     494           rtu4940         1       473  
     495           rtu4950         1       492  
     496           rtu4960         1       542  
     497           rtu4970         1       606  
     498           rtu4980         1       626  
     499           rtu4990         1       498  
     500           rtu5000         1       714  
     501           rtu5010         1       470  
     502           rtu5020         1       654  
     503           rtu5030         1       503  
     504           rtu5040         1       466  
     505           rtu5050         1       551  
     506           rtu5060         1       561  
     507           rtu5070         1       558  
     508           rtu5080         1       491  
     509           rtu5090         1       548  
     510           rtu5100         1       469  
     511           rtu5110         1       552  
     512           rtu5120         1       591  
     513           rtu5130         1       607  
     514           rtu5140         1       649  
     515           rtu5150         1       242  
     516           rtu5160         1       436  
     517           rtu5170         1       516  
     518           rtu5180         1       588  
     519           rtu5190         1       532  
     520           rtu5200         1       535  
     521           rtu5210         1       518  
     522           rtu5220         1       609  
     523           rtu5230         1       524  
     524           rtu5240         1       441  
     525           rtu5250         1       440  
     526           rtu5260         1       439  
     527           rtu5270         1       534  
     528           rtu5280         1       590  
     529           rtu5290         1       616  
     530           rtu5300         1       544  
     531           rtu5310         1       580  
     532           rtu5320         1       630  
     533           rtu5330         1       546  
     534           rtu5340         1       656  
     535           rtu5350         1       610  
     536           rtu5360         1       519  
     537           rtu5370         1       619  
     538           rtu5380         1       623  
     539           rtu5390         1       621  
     540           rtu5400         1       592  
     541           rtu5410         1       536  
     542           rtu5420         1       430  
     543           rtu5430         1       653  
     544           rtu5440         1       571  
     545           rtu5450         1       611  
     546           rtu5460         1       549  
     547           rtu5470         1       684  
     548           rtu5480         1       683  
     549           rtu5490         1       680  
     550           rtu5500         1       437  
     551           rtu5510         1       613  
     552           rtu5520         1       614  
     553           rtu5530         1       617  
     554           rtu5540         1       485  
     555           rtu5550         1       586  
     556           rtu5560         1       522  
     557           rtu5570         1       537  
     558           rtu5580         1       538  
     559           rtu5590         1       540  
     560           rtu5600         1       637  
     561           rtu5610         1       633  
     562           rtu5620         1       632  
     563           rtu5630         1       707  
     564           rtu5640         1       708  
     565           rtu5650         1       703  
     566           rtu5660         1       704  
     567           rtu5670         1       556  
     568           rtu5680         1       557  
     569           rtu5690         1       547  
     570           rtu5700         1       541  
     571           rtu5710         1       624  
     572           rtu5720         1       647  
     573           rtu5730         1       533  
     574           rtu5740         1       482  
     575           rtu5750         1       576  
     576           rtu5760         1       481  
     577           rtu5770         1       483  
     578           rtu5780         1       488  
     579           rtu5790         1       495  
     580           rtu5800         1       496  
     581           rtu5810         1       450  
     582           rtu5820         1       539  
     583           rtu5830         1       543  
     584           rtu5840         1       545  
     585           rtu5850         1       525  
     586           rtu5860         1       628  
     587           rtu5870         1       584  
     588           rtu5880         1       531  
     589           rtu5890         1       530  
     590           rtu5900         1       529  
     591           rtu5910         1       526  
     592           rtu5920         1       527  
     593           rtu5930         1       528  
     594           rtu5940         1       622  
     595           rtu5950         1       615  
     596           rtu5960         1       648  
     597           rtu5970         1       444  