slr.cli: Solar radiation file names - file written by SWAT+ editor 2025-10-29 11:29:18.066865
filename
sr12.slr
sr13.slr
sr14.slr
sr15.slr
sr16.slr
sr18.slr
sr19.slr
sr2.slr
sr20.slr
sr21.slr
sr22.slr
sr25.slr
sr26.slr
sr27.slr
sr28.slr
sr29.slr
sr32.slr
sr33.slr
sr8.slr
sr9.slr
