soils.sol: written by SWAT+ editor v3.0.8 on 2025-10-29 11:31 for SWAT+ rev.61.0.1
name                            nly           hyd_grp        dp_tot    anion_excl      perc_crk  texture                              dp            bd           awc        soil_k        carbon          clay          silt          sand          rock           alb        usle_k            ec         caco3            ph  
SRHK                              6                 B    2000.00000       0.50000       0.50000  WIT_texture                
                                                                                                                                50.00000       0.96800       0.20580      52.94000       9.99000      13.76000      33.28000      53.06000      13.86000       0.21470       0.14100       0.00000       0.00000       0.00000  
                                                                                                                               100.00000       1.14300       0.20640      48.30000       8.16000      14.52000      33.40000      51.97000      14.30500       0.21450       0.14060       0.00000       0.00000       0.00000  
                                                                                                                               300.00000       1.25100       0.19800      48.94000       4.75800      14.48400      32.12000      53.40000      14.91400       0.21630       0.14380       0.00000       0.00000       0.00000  
                                                                                                                               600.00000       1.33500       0.18710      45.28000       4.02300      14.80500      31.12000      54.10000      16.92000       0.21700       0.14690       0.00000       0.00000       0.00000  
                                                                                                                              1000.00000       1.36600       0.18190      45.75000       3.91000      14.55500      30.62000      54.80000      18.22000       0.21740       0.14810       0.00000       0.00000       0.00000  
                                                                                                                              2000.00000       1.38900       0.17900      46.00000       3.74400      14.48000      30.19000      55.30000      18.66000       0.21770       0.14890       0.00000       0.00000       0.00000  
MR                                6                 C    2000.00000       0.50000       0.50000  WIT_texture                
                                                                                                                                50.00000       0.99500       0.21150      49.72000      11.05000      14.63000      33.53000      51.78000      11.29000       0.21400       0.13820       0.00000       0.00000       0.00000  
                                                                                                                               100.00000       1.16000       0.21310      49.38000       8.91000      14.48400      32.75000      52.88000      11.78000       0.21370       0.13810       0.00000       0.00000       0.00000  
                                                                                                                               300.00000       1.27700       0.19930      44.38000       5.42600      15.86000      32.38000      51.72000      11.94500       0.21520       0.14060       0.00000       0.00000       0.00000  
                                                                                                                               600.00000       1.37200       0.18590      39.53000       4.70000      16.40000      31.25000      52.34000      13.33600       0.21580       0.14320       0.00000       0.00000       0.00000  
                                                                                                                              1000.00000       1.42000       0.18130      38.75000       4.59400      16.22000      30.83000      52.94000      14.37000       0.21620       0.14440       0.00000       0.00000       0.00000  
                                                                                                                              2000.00000       1.44000       0.17830      38.80000       4.32400      16.16000      30.40000      53.44000      15.02000       0.21660       0.14560       0.00000       0.00000       0.00000  
KA                                6                 C    2000.00000       0.50000       0.50000  WIT_texture                
                                                                                                                                50.00000       0.82960       0.21010      52.72000      12.12000      12.75000      36.47000      50.78000      16.47000       0.21420       0.13990       0.00000       0.00000       0.00000  
                                                                                                                               100.00000       1.01700       0.21790      51.88000       9.79000      12.76000      35.94000      51.28000      17.11000       0.21440       0.13980       0.00000       0.00000       0.00000  
                                                                                                                               300.00000       1.15100       0.21230      53.20000       5.15200      12.85000      33.70000      53.47000      18.14000       0.21700       0.14300       0.00000       0.00000       0.00000  
                                                                                                                               600.00000       1.29300       0.19920      50.75000       4.00800      13.05500      31.94000      55.00000      21.47000       0.21810       0.14660       0.00000       0.00000       0.00000  
                                                                                                                              1000.00000       1.35200       0.19570      50.70000       3.78500      12.94500      31.12000      55.94000      22.97000       0.21850       0.14810       0.00000       0.00000       0.00000  
                                                                                                                              2000.00000       1.37900       0.19250      51.10000       3.76800      12.95000      30.27000      56.72000      23.84000       0.21880       0.14890       0.00000       0.00000       0.00000  
TU                                6                 B    2000.00000       0.50000       0.50000  WIT_texture                
                                                                                                                                50.00000       1.21000       0.15810      48.03000       5.24600      14.84000      31.45000      53.75000      13.36000       0.21770       0.14880       0.00000       0.00000       0.00000  
                                                                                                                               100.00000       1.28700       0.15700      45.50000       4.36300      15.41000      31.27000      53.38000      13.87000       0.21750       0.14920       0.00000       0.00000       0.00000  
                                                                                                                               300.00000       1.36000       0.14890      37.80000       2.70700      17.64000      30.90000      51.40000      14.32000       0.21750       0.15360       0.00000       0.00000       0.00000  
                                                                                                                               600.00000       1.41500       0.13930      32.80000       2.20000      18.62000      29.98000      51.40000      15.99000       0.21740       0.15670       0.00000       0.00000       0.00000  
                                                                                                                              1000.00000       1.44700       0.13590      33.50000       2.08800      18.16000      29.34000      52.50000      17.30000       0.21780       0.15810       0.00000       0.00000       0.00000  
                                                                                                                              2000.00000       1.46000       0.13260      34.66000       1.94200      17.81000      28.61000      53.56000      18.10000       0.21800       0.15880       0.00000       0.00000       0.00000  
VE                                6                 B    2000.00000       0.50000       0.50000  WIT_texture                
                                                                                                                                50.00000       1.18400       0.13220      70.70000       5.61700      12.11000      25.05000      62.84000      15.54000       0.21810       0.14530       0.00000       0.00000       0.00000  
                                                                                                                               100.00000       1.27000       0.13400      68.00000       4.70000      12.50000      24.80000      62.70000      16.22000       0.21790       0.14530       0.00000       0.00000       0.00000  
                                                                                                                               300.00000       1.34900       0.12790      65.10000       2.72300      13.16400      24.12000      62.70000      16.81000       0.21890       0.14770       0.00000       0.00000       0.00000  
                                                                                                                               600.00000       1.41600       0.12300      59.40000       2.21900      13.72000      23.48000      62.78000      18.86000       0.21910       0.15000       0.00000       0.00000       0.00000  
                                                                                                                              1000.00000       1.45200       0.11830      61.40000       2.10200      13.36000      23.00000      63.62000      20.44000       0.21950       0.15030       0.00000       0.00000       0.00000  
                                                                                                                              2000.00000       1.46500       0.11660      62.88000       1.96500      13.20000      22.52000      64.25000      21.14000       0.21980       0.15000       0.00000       0.00000       0.00000  
HM                                6                 C    2000.00000       0.50000       0.50000  WIT_texture                
                                                                                                                                50.00000       1.19900       0.15360      46.47000       5.15000      15.28000      31.73000      53.06000      15.71000       0.21750       0.15010       0.00000       0.00000       0.00000  
                                                                                                                               100.00000       1.28400       0.15110      41.94000       4.20000      16.40000      31.77000      51.78000      16.14000       0.21720       0.15010       0.00000       0.00000       0.00000  
                                                                                                                               300.00000       1.35300       0.14540      37.44000       2.66400      17.69000      31.22000      51.10000      16.94000       0.21750       0.15430       0.00000       0.00000       0.00000  
                                                                                                                               600.00000       1.40200       0.13890      33.97000       2.21000      18.11000      30.38000      51.53000      19.11000       0.21780       0.15780       0.00000       0.00000       0.00000  
                                                                                                                              1000.00000       1.42700       0.13590      35.47000       2.13300      17.44000      29.81000      52.75000      20.60000       0.21830       0.15930       0.00000       0.00000       0.00000  
                                                                                                                              2000.00000       1.43750       0.13290      36.62000       2.01400      17.14000      29.20000      53.66000      21.22000       0.21840       0.16020       0.00000       0.00000       0.00000  
KM                                6                 C    2000.00000       0.50000       0.50000  WIT_texture                
                                                                                                                                50.00000       0.92630       0.21620      36.60000      10.96000      17.83000      39.16000      43.00000      10.89000       0.21370       0.13900       0.00000       0.00000       0.00000  
                                                                                                                               100.00000       1.10700       0.21640      34.88000       9.21000      18.16000      38.80000      43.03000      11.46000       0.21400       0.13900       0.00000       0.00000       0.00000  
                                                                                                                               300.00000       1.22400       0.20970      32.72000       5.40600      18.84000      37.53000      43.62000      11.86000       0.21510       0.14320       0.00000       0.00000       0.00000  
                                                                                                                               600.00000       1.32500       0.19620      29.90000       4.59800      19.20000      36.28000      44.53000      14.31000       0.21550       0.14670       0.00000       0.00000       0.00000  
                                                                                                                              1000.00000       1.35100       0.19130      30.25000       4.45700      18.84000      35.66000      45.50000      15.52000       0.21570       0.14800       0.00000       0.00000       0.00000  
                                                                                                                              2000.00000       1.37800       0.18750      30.30000       4.30000      18.69000      34.94000      46.38000      16.22000       0.21600       0.14870       0.00000       0.00000       0.00000  
MRHM                              6                 B    2000.00000       0.50000       0.50000  WIT_texture                
                                                                                                                                50.00000       0.88400       0.20650      53.88000      12.30500      12.76600      35.34000      51.84000      16.72000       0.21410       0.13920       0.00000       0.00000       0.00000  
                                                                                                                               100.00000       1.05900       0.21400      54.12000      10.01600      12.54000      34.44000      53.10000      17.40000       0.21390       0.13900       0.00000       0.00000       0.00000  
                                                                                                                               300.00000       1.18600       0.20630      54.22000       5.49200      12.83000      32.84000      54.28000      18.42000       0.21670       0.14220       0.00000       0.00000       0.00000  
                                                                                                                               600.00000       1.32900       0.19150      51.12000       4.54000      13.12500      31.05000      55.80000      21.52000       0.21790       0.14610       0.00000       0.00000       0.00000  
                                                                                                                              1000.00000       1.39800       0.18430      50.80000       4.31200      13.00000      30.28000      56.72000      22.86000       0.21840       0.14780       0.00000       0.00000       0.00000  
                                                                                                                              2000.00000       1.42400       0.18140      50.97000       4.14500      13.06000      29.60000      57.34000      23.53000       0.21880       0.14870       0.00000       0.00000       0.00000  
