soils.sol: written by SWAT+ editor v3.0.8 on 2025-07-29 21:28 for SWAT+ rev.61.0.1
name                            nly           hyd_grp        dp_tot    anion_excl      perc_crk  texture                              dp            bd           awc        soil_k        carbon          clay          silt          sand          rock           alb        usle_k            ec         caco3            ph  
Od23-a-3220                       2                 D    1000.00000       0.50000       0.50000  LOAM                       
                                                                                                                               300.00000       0.20000       0.12000      10.63000      36.50000      21.00000      35.00000      44.00000       0.00000       0.07000       0.01000       0.00000       0.00000       0.00000  
                                                                                                                              1000.00000       0.30000       0.12000       0.00000      38.90000      21.00000      34.00000      46.00000       0.00000       0.00000       0.01000       0.00000       0.00000       0.00000  
Po32-1-2a-6610                    2                 B     910.00000       0.50000       0.50000  SANDY_LOAM                 
                                                                                                                               300.00000       0.70000       0.09000     137.81000      15.10000      14.00000      31.00000      55.00000       0.00000       0.00000       0.06000       0.00000       0.00000       0.00000  
                                                                                                                              1000.00000       1.00000       0.09000      65.41000      15.50000      15.00000      27.00000      59.00000       0.00000       0.00000       0.06000       0.00000       0.00000       0.00000  
I-Po-1-2b-3117                    2                 B     550.00000       0.50000       0.50000  SANDY_LOAM                 
                                                                                                                               300.00000       1.00000       0.07000      96.48000       0.50000      10.00000      20.00000      70.00000       0.00000       0.18000       0.28000       0.00000       0.00000       0.00000  
                                                                                                                              1000.00000       1.40000       0.07000      30.08000       0.30000      13.00000      16.00000      72.00000       0.00000       0.27000       0.28000       0.00000       0.00000       0.00000  
WATER-6997                        1                 D      25.40000       0.50000       0.50000  WATER                      
                                                                                                                                25.00000       0.00000       0.00000      99.00000       0.00000       0.00000       0.00000       0.00000       0.00000       0.23000       0.00000       0.00000       0.00000       0.00000  
