tiledrain.str: written by SWAT+ editor v3.0.8 on 2025-10-29 11:31 for SWAT+ rev.61.0.1
name                        dp          t_fc           lag           rad          dist         drain          pump      lat_ksat  
mw24_1000           1000.00000      24.00000      96.00000     100.00000       5.00000      10.00000       1.00000       2.00000  
