time.sim: written by SWAT+ editor v3.0.8 on 2025-10-29 11:31 for SWAT+ rev.61.0.1
day_start  yrc_start   day_end   yrc_end      step  
       0      2010       364      2015         0  
