time.sim: written by SWAT+ editor v3.0.8 on 2025-07-29 21:28 for SWAT+ rev.61.0.1
day_start  yrc_start   day_end   yrc_end      step  
       0       2012          0       2016          0 
