tmp.cli: Temperature file names - file written by SWAT+ editor 2025-10-29 11:29:21.186990
filename
t12.tmp
t13.tmp
t14.tmp
t15.tmp
t16.tmp
t18.tmp
t19.tmp
t2.tmp
t20.tmp
t21.tmp
t22.tmp
t25.tmp
t26.tmp
t27.tmp
t28.tmp
t29.tmp
t32.tmp
t33.tmp
t8.tmp
t9.tmp
