topography.hyd: written by SWAT+ editor v3.0.8 on 2025-10-29 11:31 for SWAT+ rev.61.0.1
name                       slp       slp_len       lat_len      dist_cha         depos  
topohru001             0.04963      60.00000      60.00000     121.00000       0.00000  
topohru002             0.05255      30.00000      30.00000     121.00000       0.00000  
topohru003             0.06671      30.00000      30.00000     121.00000       0.00000  
topohru004             0.05225      30.00000      30.00000     121.00000       0.00000  
topohru005             0.04858      60.00000      60.00000     121.00000       0.00000  
topohru006             0.01669      90.00000      90.00000     121.00000       0.00000  
topohru007             0.04525      60.00000      60.00000     121.00000       0.00000  
topohru008             0.01331      90.00000      90.00000     121.00000       0.00000  
topohru009             0.04427      60.00000      60.00000     121.00000       0.00000  
topohru010             0.01305      90.00000      90.00000     121.00000       0.00000  
topohru011             0.05795      30.00000      30.00000     121.00000       0.00000  
topohru012             0.01967      90.00000      90.00000     121.00000       0.00000  
topohru013             0.04504      60.00000      60.00000     121.00000       0.00000  
topohru014             0.06830      30.00000      30.00000     121.00000       0.00000  
topohru015             0.00904     121.00000     121.00000     121.00000       0.00000  
topohru016             0.03708      60.00000      60.00000     121.00000       0.00000  
topohru017             0.04431      60.00000      60.00000     121.00000       0.00000  
topohru018             0.04056      60.00000      60.00000     121.00000       0.00000  
topohru019             0.03715      60.00000      60.00000     121.00000       0.00000  
topohru020             0.04768      60.00000      60.00000     121.00000       0.00000  
topohru021             0.06526      30.00000      30.00000     121.00000       0.00000  
topohru022             0.02500      90.00000      90.00000     121.00000       0.00000  
topohru023             0.00524     121.00000     121.00000     121.00000       0.00000  
topohru024             0.00006     121.00000     121.00000     121.00000       0.00000  
topohru025             0.00934     121.00000     121.00000     121.00000       0.00000  
topohru026             0.00985     121.00000     121.00000     121.00000       0.00000  
topohru027             0.04214      60.00000      60.00000     121.00000       0.00000  
topohru028             0.00715     121.00000     121.00000     121.00000       0.00000  
topohru029             0.04520      60.00000      60.00000     121.00000       0.00000  
topohru030             0.06027      30.00000      30.00000     121.00000       0.00000  
topohru031             0.04868      60.00000      60.00000     121.00000       0.00000  
topohru032             0.04861      60.00000      60.00000     121.00000       0.00000  
topohru033             0.04982      60.00000      60.00000     121.00000       0.00000  
topohru034             0.04491      60.00000      60.00000     121.00000       0.00000  
topohru035             0.03188      60.00000      60.00000     121.00000       0.00000  
topohru036             0.03731      60.00000      60.00000     121.00000       0.00000  
topohru037             0.04394      60.00000      60.00000     121.00000       0.00000  
topohru038             0.04169      60.00000      60.00000     121.00000       0.00000  
topohru039             0.04294      60.00000      60.00000     121.00000       0.00000  
topohru040             0.02350      90.00000      90.00000     121.00000       0.00000  
topohru041             0.03045      60.00000      60.00000     121.00000       0.00000  
topohru042             0.00000     121.00000     121.00000     121.00000       0.00000  
topohru043             0.03906      60.00000      60.00000     121.00000       0.00000  
topohru044             0.05136      30.00000      30.00000     121.00000       0.00000  
topohru045             0.04351      60.00000      60.00000     121.00000       0.00000  
topohru046             0.03028      60.00000      60.00000     121.00000       0.00000  
topohru047             0.06705      30.00000      30.00000     121.00000       0.00000  
topohru048             0.03638      60.00000      60.00000     121.00000       0.00000  
topohru049             0.04522      60.00000      60.00000     121.00000       0.00000  
topohru050             0.03620      60.00000      60.00000     121.00000       0.00000  
topohru051             0.04459      60.00000      60.00000     121.00000       0.00000  
topohru052             0.03659      60.00000      60.00000     121.00000       0.00000  
topohru053             0.05216      30.00000      30.00000     121.00000       0.00000  
topohru054             0.03788      60.00000      60.00000     121.00000       0.00000  
topohru055             0.04244      60.00000      60.00000     121.00000       0.00000  
topohru056             0.07761      30.00000      30.00000     121.00000       0.00000  
topohru057             0.05525      30.00000      30.00000     121.00000       0.00000  
topohru058             0.04815      60.00000      60.00000     121.00000       0.00000  
topohru059             0.00000     121.00000     121.00000     121.00000       0.00000  
topohru060             0.02898      90.00000      90.00000     121.00000       0.00000  
topohru061             0.03414      60.00000      60.00000     121.00000       0.00000  
topohru062             0.07143      30.00000      30.00000     121.00000       0.00000  
topohru063             0.07366      30.00000      30.00000     121.00000       0.00000  
topohru064             0.05241      30.00000      30.00000     121.00000       0.00000  
topohru065             0.06507      30.00000      30.00000     121.00000       0.00000  
topohru066             0.04965      60.00000      60.00000     121.00000       0.00000  
topohru067             0.05280      30.00000      30.00000     121.00000       0.00000  
topohru068             0.03962      60.00000      60.00000     121.00000       0.00000  
topohru069             0.04023      60.00000      60.00000     121.00000       0.00000  
topohru070             0.03681      60.00000      60.00000     121.00000       0.00000  
topohru071             0.03977      60.00000      60.00000     121.00000       0.00000  
topohru072             0.03659      60.00000      60.00000     121.00000       0.00000  
topohru073             0.05043      30.00000      30.00000     121.00000       0.00000  
topohru074             0.03411      60.00000      60.00000     121.00000       0.00000  
topohru075             0.03988      60.00000      60.00000     121.00000       0.00000  
topohru076             0.02833      90.00000      90.00000     121.00000       0.00000  
topohru077             0.03420      60.00000      60.00000     121.00000       0.00000  
topohru078             0.00020     121.00000     121.00000     121.00000       0.00000  
topohru079             0.03612      60.00000      60.00000     121.00000       0.00000  
topohru080             0.02364      90.00000      90.00000     121.00000       0.00000  
topohru081             0.05442      30.00000      30.00000     121.00000       0.00000  
topohru082             0.04243      60.00000      60.00000     121.00000       0.00000  
topohru083             0.04056      60.00000      60.00000     121.00000       0.00000  
topohru084             0.04672      60.00000      60.00000     121.00000       0.00000  
topohru085             0.03911      60.00000      60.00000     121.00000       0.00000  
topohru086             0.05693      30.00000      30.00000     121.00000       0.00000  
topohru087             0.04488      60.00000      60.00000     121.00000       0.00000  
topohru088             0.05310      30.00000      30.00000     121.00000       0.00000  
topohru089             0.02800      90.00000      90.00000     121.00000       0.00000  
topohru090             0.05563      30.00000      30.00000     121.00000       0.00000  
topohru091             0.02296      90.00000      90.00000     121.00000       0.00000  
topohru092             0.05719      30.00000      30.00000     121.00000       0.00000  
topohru093             0.03889      60.00000      60.00000     121.00000       0.00000  
topohru094             0.02400      90.00000      90.00000     121.00000       0.00000  
topohru095             0.05048      30.00000      30.00000     121.00000       0.00000  
topohru096             0.04985      60.00000      60.00000     121.00000       0.00000  
topohru097             0.02736      90.00000      90.00000     121.00000       0.00000  
topohru098             0.00139     121.00000     121.00000     121.00000       0.00000  
topohru099             0.06972      30.00000      30.00000     121.00000       0.00000  
topohru100             0.05122      30.00000      30.00000     121.00000       0.00000  
topohru101             0.00091     121.00000     121.00000     121.00000       0.00000  
topohru102             0.08784      10.00000      10.00000     121.00000       0.00000  
topohru103             0.03740      60.00000      60.00000     121.00000       0.00000  
topohru104             0.03893      60.00000      60.00000     121.00000       0.00000  
topohru105             0.06006      30.00000      30.00000     121.00000       0.00000  
topohru106             0.04060      60.00000      60.00000     121.00000       0.00000  
topohru107             0.06053      30.00000      30.00000     121.00000       0.00000  
topohru108             0.03049      60.00000      60.00000     121.00000       0.00000  
topohru109             0.03641      60.00000      60.00000     121.00000       0.00000  
topohru110             0.03833      60.00000      60.00000     121.00000       0.00000  
topohru111             0.06195      30.00000      30.00000     121.00000       0.00000  
topohru112             0.04406      60.00000      60.00000     121.00000       0.00000  
topohru113             0.05125      30.00000      30.00000     121.00000       0.00000  
topohru114             0.03338      60.00000      60.00000     121.00000       0.00000  
topohru115             0.04571      60.00000      60.00000     121.00000       0.00000  
topohru116             0.05087      30.00000      30.00000     121.00000       0.00000  
topohru117             0.03530      60.00000      60.00000     121.00000       0.00000  
topohru118             0.05360      30.00000      30.00000     121.00000       0.00000  
topohru119             0.00000     121.00000     121.00000     121.00000       0.00000  
topohru120             0.06047      30.00000      30.00000     121.00000       0.00000  
topohru121             0.00000     121.00000     121.00000     121.00000       0.00000  
topohru122             0.03479      60.00000      60.00000     121.00000       0.00000  
topohru123             0.04258      60.00000      60.00000     121.00000       0.00000  
topohru124             0.05388      30.00000      30.00000     121.00000       0.00000  
topohru125             0.03943      60.00000      60.00000     121.00000       0.00000  
topohru126             0.04187      60.00000      60.00000     121.00000       0.00000  
topohru127             0.04852      60.00000      60.00000     121.00000       0.00000  
topohru128             0.03010      60.00000      60.00000     121.00000       0.00000  
topohru129             0.04948      60.00000      60.00000     121.00000       0.00000  
topohru130             0.07742      30.00000      30.00000     121.00000       0.00000  
topohru131             0.03331      60.00000      60.00000     121.00000       0.00000  
topohru132             0.03720      60.00000      60.00000     121.00000       0.00000  
topohru133             0.04186      60.00000      60.00000     121.00000       0.00000  
topohru134             0.05678      30.00000      30.00000     121.00000       0.00000  
topohru135             0.07837      30.00000      30.00000     121.00000       0.00000  
topohru136             0.06800      30.00000      30.00000     121.00000       0.00000  
topohru137             0.04373      60.00000      60.00000     121.00000       0.00000  
topohru138             0.03755      60.00000      60.00000     121.00000       0.00000  
topohru139             0.01442      90.00000      90.00000     121.00000       0.00000  
topohru140             0.09271      10.00000      10.00000     121.00000       0.00000  
topohru141             0.08846      10.00000      10.00000     121.00000       0.00000  
topohru142             0.13076      10.00000      10.00000     121.00000       0.00000  
topohru143             0.03913      60.00000      60.00000     121.00000       0.00000  
topohru144             0.11636      10.00000      10.00000     121.00000       0.00000  
topohru145             0.10994      10.00000      10.00000     121.00000       0.00000  
topohru146             0.06521      30.00000      30.00000     121.00000       0.00000  
topohru147             0.08452      10.00000      10.00000     121.00000       0.00000  
topohru148             0.07927      30.00000      30.00000     121.00000       0.00000  
topohru149             0.04564      60.00000      60.00000     121.00000       0.00000  
topohru150             0.03750      60.00000      60.00000     121.00000       0.00000  
topohru151             0.06052      30.00000      30.00000     121.00000       0.00000  
topohru152             0.09408      10.00000      10.00000     121.00000       0.00000  
topohru153             0.03157      60.00000      60.00000     121.00000       0.00000  
topohru154             0.01404      90.00000      90.00000     121.00000       0.00000  
topohru155             0.03835      60.00000      60.00000     121.00000       0.00000  
topohru156             0.01965      90.00000      90.00000     121.00000       0.00000  
topohru157             0.08140      10.00000      10.00000     121.00000       0.00000  
topohru158             0.08681      10.00000      10.00000     121.00000       0.00000  
topohru159             0.06689      30.00000      30.00000     121.00000       0.00000  
topohru160             0.05879      30.00000      30.00000     121.00000       0.00000  
topohru161             0.04325      60.00000      60.00000     121.00000       0.00000  
topohru162             0.07244      30.00000      30.00000     121.00000       0.00000  
topohru163             0.06217      30.00000      30.00000     121.00000       0.00000  
topohru164             0.02078      90.00000      90.00000     121.00000       0.00000  
topohru165             0.02400      90.00000      90.00000     121.00000       0.00000  
topohru166             0.02929      90.00000      90.00000     121.00000       0.00000  
topohru167             0.03078      60.00000      60.00000     121.00000       0.00000  
topohru168             0.04741      60.00000      60.00000     121.00000       0.00000  
topohru169             0.03974      60.00000      60.00000     121.00000       0.00000  
topohru170             0.03271      60.00000      60.00000     121.00000       0.00000  
topohru171             0.02684      90.00000      90.00000     121.00000       0.00000  
topohru172             0.02250      90.00000      90.00000     121.00000       0.00000  
topohru173             0.00778     121.00000     121.00000     121.00000       0.00000  
topohru174             0.07450      30.00000      30.00000     121.00000       0.00000  
topohru175             0.04096      60.00000      60.00000     121.00000       0.00000  
topohru176             0.05645      30.00000      30.00000     121.00000       0.00000  
topohru177             0.03866      60.00000      60.00000     121.00000       0.00000  
topohru178             0.06713      30.00000      30.00000     121.00000       0.00000  
topohru179             0.05059      30.00000      30.00000     121.00000       0.00000  
topohru180             0.07724      30.00000      30.00000     121.00000       0.00000  
topohru181             0.02843      90.00000      90.00000     121.00000       0.00000  
topohru182             0.02499      90.00000      90.00000     121.00000       0.00000  
topohru183             0.02474      90.00000      90.00000     121.00000       0.00000  
topohru184             0.02207      90.00000      90.00000     121.00000       0.00000  
topohru185             0.04154      60.00000      60.00000     121.00000       0.00000  
topohru186             0.08025      10.00000      10.00000     121.00000       0.00000  
topohru187             0.04380      60.00000      60.00000     121.00000       0.00000  
topohru188             0.03987      60.00000      60.00000     121.00000       0.00000  
topohru189             0.03054      60.00000      60.00000     121.00000       0.00000  
topohru190             0.07967      30.00000      30.00000     121.00000       0.00000  
topohru191             0.00018     121.00000     121.00000     121.00000       0.00000  
topohru192             0.01970      90.00000      90.00000     121.00000       0.00000  
topohru193             0.06210      30.00000      30.00000     121.00000       0.00000  
topohru194             0.04219      60.00000      60.00000     121.00000       0.00000  
topohru195             0.03766      60.00000      60.00000     121.00000       0.00000  
topohru196             0.03350      60.00000      60.00000     121.00000       0.00000  
topohru197             0.04177      60.00000      60.00000     121.00000       0.00000  
topohru198             0.06145      30.00000      30.00000     121.00000       0.00000  
topohru199             0.05683      30.00000      30.00000     121.00000       0.00000  
topohru200             0.04909      60.00000      60.00000     121.00000       0.00000  
topohru201             0.02350      90.00000      90.00000     121.00000       0.00000  
topohru202             0.02366      90.00000      90.00000     121.00000       0.00000  
topohru203             0.02255      90.00000      90.00000     121.00000       0.00000  
topohru204             0.00000     121.00000     121.00000     121.00000       0.00000  
topohru205             0.00000     121.00000     121.00000     121.00000       0.00000  
topohru206             0.04577      60.00000      60.00000     121.00000       0.00000  
topohru207             0.03670      60.00000      60.00000     121.00000       0.00000  
topohru208             0.03186      60.00000      60.00000     121.00000       0.00000  
topohru209             0.01077      90.00000      90.00000     121.00000       0.00000  
topohru210             0.05242      30.00000      30.00000     121.00000       0.00000  
topohru211             0.02656      90.00000      90.00000     121.00000       0.00000  
topohru212             0.04528      60.00000      60.00000     121.00000       0.00000  
topohru213             0.05259      30.00000      30.00000     121.00000       0.00000  
topohru214             0.02598      90.00000      90.00000     121.00000       0.00000  
topohru215             0.00726     121.00000     121.00000     121.00000       0.00000  
topohru216             0.01090      90.00000      90.00000     121.00000       0.00000  
topohru217             0.03789      60.00000      60.00000     121.00000       0.00000  
topohru218             0.05207      30.00000      30.00000     121.00000       0.00000  
topohru219             0.04841      60.00000      60.00000     121.00000       0.00000  
topohru220             0.04982      60.00000      60.00000     121.00000       0.00000  
topohru221             0.08885      10.00000      10.00000     121.00000       0.00000  
topohru222             0.07823      30.00000      30.00000     121.00000       0.00000  
topohru223             0.01784      90.00000      90.00000     121.00000       0.00000  
topohru224             0.05480      30.00000      30.00000     121.00000       0.00000  
topohru225             0.07192      30.00000      30.00000     121.00000       0.00000  
topohru226             0.08797      10.00000      10.00000     121.00000       0.00000  
topohru227             0.09118      10.00000      10.00000     121.00000       0.00000  
topohru228             0.07116      30.00000      30.00000     121.00000       0.00000  
topohru229             0.04719      60.00000      60.00000     121.00000       0.00000  
topohru230             0.02889      90.00000      90.00000     121.00000       0.00000  
topohru231             0.01979      90.00000      90.00000     121.00000       0.00000  
topohru232             0.04213      60.00000      60.00000     121.00000       0.00000  
topohru233             0.03744      60.00000      60.00000     121.00000       0.00000  
topohru234             0.00802     121.00000     121.00000     121.00000       0.00000  
topohru235             0.03820      60.00000      60.00000     121.00000       0.00000  
topohru236             0.03767      60.00000      60.00000     121.00000       0.00000  
topohru237             0.05521      30.00000      30.00000     121.00000       0.00000  
topohru238             0.05408      30.00000      30.00000     121.00000       0.00000  
topohru239             0.04771      60.00000      60.00000     121.00000       0.00000  
topohru240             0.03419      60.00000      60.00000     121.00000       0.00000  
topohru241             0.03659      60.00000      60.00000     121.00000       0.00000  
topohru242             0.02064      90.00000      90.00000     121.00000       0.00000  
topohru243             0.05666      30.00000      30.00000     121.00000       0.00000  
topohru244             0.02873      90.00000      90.00000     121.00000       0.00000  
topohru245             0.06732      30.00000      30.00000     121.00000       0.00000  
topohru246             0.03996      60.00000      60.00000     121.00000       0.00000  
topohru247             0.08051      10.00000      10.00000     121.00000       0.00000  
topohru248             0.06001      30.00000      30.00000     121.00000       0.00000  
topohru249             0.05652      30.00000      30.00000     121.00000       0.00000  
topohru250             0.03303      60.00000      60.00000     121.00000       0.00000  
topohru251             0.06393      30.00000      30.00000     121.00000       0.00000  
topohru252             0.05909      30.00000      30.00000     121.00000       0.00000  
topohru253             0.04328      60.00000      60.00000     121.00000       0.00000  
topohru254             0.04514      60.00000      60.00000     121.00000       0.00000  
topohru255             0.08923      10.00000      10.00000     121.00000       0.00000  
topohru256             0.05282      30.00000      30.00000     121.00000       0.00000  
topohru257             0.04342      60.00000      60.00000     121.00000       0.00000  
topohru258             0.02456      90.00000      90.00000     121.00000       0.00000  
topohru259             0.03235      60.00000      60.00000     121.00000       0.00000  
topohru260             0.04732      60.00000      60.00000     121.00000       0.00000  
topohru261             0.03640      60.00000      60.00000     121.00000       0.00000  
topohru262             0.00067     121.00000     121.00000     121.00000       0.00000  
topohru263             0.03481      60.00000      60.00000     121.00000       0.00000  
topohru264             0.03442      60.00000      60.00000     121.00000       0.00000  
topohru265             0.01352      90.00000      90.00000     121.00000       0.00000  
topohru266             0.00000     121.00000     121.00000     121.00000       0.00000  
topohru267             0.03254      60.00000      60.00000     121.00000       0.00000  
topohru268             0.00000     121.00000     121.00000     121.00000       0.00000  
topohru269             0.00270     121.00000     121.00000     121.00000       0.00000  
topohru270             0.00000     121.00000     121.00000     121.00000       0.00000  
topohru271             0.04346      60.00000      60.00000     121.00000       0.00000  
topohru272             0.02443      90.00000      90.00000     121.00000       0.00000  
topohru273             0.04905      60.00000      60.00000     121.00000       0.00000  
topohru274             0.02776      90.00000      90.00000     121.00000       0.00000  
topohru275             0.00000     121.00000     121.00000     121.00000       0.00000  
topohru276             0.03081      60.00000      60.00000     121.00000       0.00000  
topohru277             0.03149      60.00000      60.00000     121.00000       0.00000  
topohru278             0.05942      30.00000      30.00000     121.00000       0.00000  
topohru279             0.04738      60.00000      60.00000     121.00000       0.00000  
topohru280             0.02280      90.00000      90.00000     121.00000       0.00000  
topohru281             0.08022      10.00000      10.00000     121.00000       0.00000  
topohru282             0.06110      30.00000      30.00000     121.00000       0.00000  
topohru283             0.07418      30.00000      30.00000     121.00000       0.00000  
topohru284             0.05614      30.00000      30.00000     121.00000       0.00000  
topohru285             0.06510      30.00000      30.00000     121.00000       0.00000  
topohru286             0.05492      30.00000      30.00000     121.00000       0.00000  
topohru287             0.05008      30.00000      30.00000     121.00000       0.00000  
topohru288             0.08854      10.00000      10.00000     121.00000       0.00000  
topohru289             0.00484     121.00000     121.00000     121.00000       0.00000  
topohru290             0.01301      90.00000      90.00000     121.00000       0.00000  
topohru291             0.05683      30.00000      30.00000     121.00000       0.00000  
topohru292             0.07171      30.00000      30.00000     121.00000       0.00000  
topohru293             0.05230      30.00000      30.00000     121.00000       0.00000  
topohru294             0.02682      90.00000      90.00000     121.00000       0.00000  
topohru295             0.06210      30.00000      30.00000     121.00000       0.00000  
topohru296             0.08732      10.00000      10.00000     121.00000       0.00000  
topohru297             0.06904      30.00000      30.00000     121.00000       0.00000  
topohru298             0.02388      90.00000      90.00000     121.00000       0.00000  
topohru299             0.06485      30.00000      30.00000     121.00000       0.00000  
topohru300             0.06351      30.00000      30.00000     121.00000       0.00000  
topohru301             0.06791      30.00000      30.00000     121.00000       0.00000  
topohru302             0.03877      60.00000      60.00000     121.00000       0.00000  
topohru303             0.00000     121.00000     121.00000     121.00000       0.00000  
topohru304             0.04918      60.00000      60.00000     121.00000       0.00000  
topohru305             0.07133      30.00000      30.00000     121.00000       0.00000  
topohru306             0.03993      60.00000      60.00000     121.00000       0.00000  
topohru307             0.04992      60.00000      60.00000     121.00000       0.00000  
topohru308             0.06471      30.00000      30.00000     121.00000       0.00000  
topohru309             0.04031      60.00000      60.00000     121.00000       0.00000  
topohru310             0.01850      90.00000      90.00000     121.00000       0.00000  
topohru311             0.02748      90.00000      90.00000     121.00000       0.00000  
topohru312             0.03491      60.00000      60.00000     121.00000       0.00000  
topohru313             0.01015      90.00000      90.00000     121.00000       0.00000  
topohru314             0.01476      90.00000      90.00000     121.00000       0.00000  
topohru315             0.02588      90.00000      90.00000     121.00000       0.00000  
topohru316             0.05808      30.00000      30.00000     121.00000       0.00000  
topohru317             0.09248      10.00000      10.00000     121.00000       0.00000  
topohru318             0.04613      60.00000      60.00000     121.00000       0.00000  
topohru319             0.05124      30.00000      30.00000     121.00000       0.00000  
topohru320             0.03342      60.00000      60.00000     121.00000       0.00000  
topohru321             0.03961      60.00000      60.00000     121.00000       0.00000  
topohru322             0.06863      30.00000      30.00000     121.00000       0.00000  
topohru323             0.03835      60.00000      60.00000     121.00000       0.00000  
topohru324             0.07387      30.00000      30.00000     121.00000       0.00000  
topohru325             0.00000     121.00000     121.00000     121.00000       0.00000  
topohru326             0.08767      10.00000      10.00000     121.00000       0.00000  
topohru327             0.06554      30.00000      30.00000     121.00000       0.00000  
topohru328             0.07593      30.00000      30.00000     121.00000       0.00000  
topohru329             0.10403      10.00000      10.00000     121.00000       0.00000  
topohru330             0.08639      10.00000      10.00000     121.00000       0.00000  
topohru331             0.10255      10.00000      10.00000     121.00000       0.00000  