weather-sta.cli: written by SWAT+ editor v3.0.8 on 2025-10-29 11:31 for SWAT+ rev.61.0.1
name                           wgn                        pcp                        tmp                        slr                        hmd                        wnd                        pet          atmo_dep  
s66360n29206e             663n291e                    p33.pcp                    t33.tmp                   sr33.slr                    r33.hmd                        sim                       null              null  
s66363n28983e             663n291e                    p32.pcp                    t32.tmp                   sr32.slr                    r32.hmd                        sim                       null              null  
s66443n29662e             663n297e                    p29.pcp                    t29.tmp                   sr29.slr                    r29.hmd                        sim                       null              null  
s66446n29438e             663n294e                    p28.pcp                    t28.tmp                   sr28.slr                    r28.hmd                        sim                       null              null  
s66450n29214e             663n291e                    p27.pcp                    t27.tmp                   sr27.slr                    r27.hmd                        sim                       null              null  
s66453n28990e             663n291e                    p26.pcp                    t26.tmp                   sr26.slr                    r26.hmd                        sim                       null              null  
s66455n28765e             663n288e                    p25.pcp                    t25.tmp                   sr25.slr                    r25.hmd                        sim                       null              null  
s66536n29447e             667n294e                    p22.pcp                    t22.tmp                   sr22.slr                    r22.hmd                        sim                       null              null  
s66539n29222e             667n294e                    p21.pcp                    t21.tmp                   sr21.slr                    r21.hmd                        sim                       null              null  
s66542n28997e             667n291e                    p20.pcp                    t20.tmp                   sr20.slr                    r20.hmd                        sim                       null              null  
s66545n28772e             667n288e                    p19.pcp                    t19.tmp                   sr19.slr                    r19.hmd                        sim                       null              null  
s66547n28547e             667n284e                    p18.pcp                    t18.tmp                   sr18.slr                    r18.hmd                        sim                       null              null  
s66626n29456e             667n294e                    p16.pcp                    t16.tmp                   sr16.slr                    r16.hmd                        sim                       null              null  
s66629n29230e             667n294e                    p15.pcp                    t15.tmp                   sr15.slr                    r15.hmd                        sim                       null              null  
s66632n29004e             667n291e                    p14.pcp                    t14.tmp                   sr14.slr                    r14.hmd                        sim                       null              null  
s66635n28778e             667n288e                    p13.pcp                    t13.tmp                   sr13.slr                    r13.hmd                        sim                       null              null  
s66637n28552e             667n284e                    p12.pcp                    t12.tmp                   sr12.slr                    r12.hmd                        sim                       null              null  
s66719n29238e             667n294e                     p9.pcp                     t9.tmp                    sr9.slr                     r9.hmd                        sim                       null              null  
s66722n29011e             667n291e                     p8.pcp                     t8.tmp                    sr8.slr                     r8.hmd                        sim                       null              null  
s66811n29019e             667n291e                     p2.pcp                     t2.tmp                    sr2.slr                     r2.hmd                        sim                       null              null  
