weather-wgn.cli: written by SWAT+ editor v3.0.8 on 2025-10-29 11:31 for SWAT+ rev.61.0.1
660n281e                       66.03640      28.12500     293.00000        32  
 tmp_max_ave   tmp_min_ave    tmp_max_sd    tmp_min_sd       pcp_ave        pcp_sd      pcp_skew       wet_dry       wet_wet      pcp_days       pcp_hhr       slr_ave       dew_ave       wnd_ave  
    -7.83050     -14.36930       6.63493       8.71604      66.62970       2.42779       1.62238       0.47191       0.45517      22.65620       4.93029       0.16300       0.92089       3.43495  
    -7.65040     -14.16780       6.05172       8.22372      59.83530       2.31556       1.70171       0.45327       0.46087      21.56250       4.91166       1.83510       0.92331       3.39589  
    -4.29440      -9.69827       4.18810       6.86805      74.03810       2.47765       1.94313       0.62687       0.47086      26.81250       5.42656       6.07320       0.95746       3.30911  
    -0.30870      -5.04677       3.16456       5.92793      74.20080       2.44555       2.00059       0.63736       0.48101      27.15620       5.89700       9.99173       0.97446       2.96693  
     7.97555       1.24099       5.45734       3.99030      82.80130       3.63940       2.53435       0.47653       0.44258      22.31250      10.14450      14.39060       0.83976       2.95489  
    15.31190       6.69308       4.99018       3.66014      74.33550       3.85230       2.34181       0.38534       0.42086      16.78120      10.48900      19.01360       0.70100       2.85967  
    18.38210       9.76014       4.29681       3.11072      92.46640       4.72401       2.75642       0.41304       0.40484      18.06250      14.41050      17.20460       0.73663       2.78948  
    15.19820       7.87980       4.54343       3.48258      80.80280       4.24199       2.81706       0.40541       0.41368      18.28120      11.50860      11.57900       0.79450       2.79780  
     9.20295       3.90332       3.61200       3.77010      76.82680       3.71138       2.82015       0.50467       0.41784      19.96880      12.01510       5.88169       0.86580       3.07296  
     2.70259      -0.88878       4.09613       4.54572      87.05700       3.37974       2.22664       0.57500       0.44823      24.75000       8.16477       1.88164       0.91458       3.45379  
    -2.87940      -6.48919       4.53782       5.60344      75.95720       2.58662       1.76004       0.55725       0.48251      25.90620       6.52845       0.29857       0.94378       3.40926  
    -5.71577     -11.22200       5.40799       7.35666      73.26960       2.61485       1.94557       0.53960       0.46036      24.43750       6.50322       0.01365       0.93909       3.45286  
660n284e                       66.03640      28.43750     240.00000        32  
 tmp_max_ave   tmp_min_ave    tmp_max_sd    tmp_min_sd       pcp_ave        pcp_sd      pcp_skew       wet_dry       wet_wet      pcp_days       pcp_hhr       slr_ave       dew_ave       wnd_ave  
    -7.94186     -14.33760       6.62432       8.59091      66.80750       2.41032       1.61436       0.46415       0.45392      22.71880       4.75064       0.16226       0.92169       3.43966  
    -7.76712     -14.12320       6.06112       8.03141      59.77480       2.29402       1.71703       0.47641       0.45231      21.62500       4.92308       1.82802       0.92403       3.39993  
    -4.38061      -9.70597       4.18825       6.77516      74.97000       2.47413       1.96432       0.65079       0.46998      27.06250       5.76482       6.04920       0.95793       3.31411  
    -0.39722      -5.06079       3.16230       5.77854      75.64350       2.46659       2.01517       0.67470       0.47776      27.40620       5.81348       9.90072       0.97511       2.97127  
     7.80458       1.15613       5.44457       3.97018      85.81120       3.70349       2.53792       0.46332       0.44672      22.87500       9.95971      14.17580       0.84209       2.95365  
    15.14710       6.59155       5.00066       3.66914      76.49950       3.90084       2.36923       0.40295       0.43219      17.28120       9.61663      18.85380       0.70437       2.85461  
    18.19800       9.66415       4.30704       3.10646      93.90770       4.67830       2.66066       0.42462       0.40909      18.56250      14.41110      17.07740       0.74027       2.78393  
    15.00170       7.77102       4.54851       3.46656      82.53400       4.25104       2.78211       0.41414       0.41779      18.62500      11.99170      11.43890       0.79923       2.78443  
     9.02559       3.85022       3.61805       3.74029      78.30800       3.67359       2.78224       0.52000       0.43182      20.62500      12.17850       5.76546       0.87003       3.07040  
     2.57822      -0.94359       4.08708       4.51512      88.28900       3.35001       2.17828       0.57065       0.46040      25.25000       8.75447       1.85976       0.91575       3.45811  
    -2.99758      -6.56108       4.53328       5.58032      77.01530       2.57631       1.67034       0.57025       0.48033      26.21880       5.89460       0.29724       0.94435       3.40590  
    -5.83660     -11.19120       5.43006       7.19696      73.32420       2.59454       1.95210       0.53266       0.45732      24.53120       6.36864       0.01379       0.93963       3.46173  
660n288e                       66.03640      28.75000     277.00000        32  
 tmp_max_ave   tmp_min_ave    tmp_max_sd    tmp_min_sd       pcp_ave        pcp_sd      pcp_skew       wet_dry       wet_wet      pcp_days       pcp_hhr       slr_ave       dew_ave       wnd_ave  
    -8.02480     -14.40170       6.61118       8.60293      67.02890       2.40473       1.62666       0.43726       0.45130      22.78120       4.74824       0.16150       0.92066       3.45613  
    -7.85720     -14.16630       6.06577       7.97875      59.72610       2.28657       1.75236       0.49763       0.46032      21.65620       5.00539       1.82093       0.92298       3.41583  
    -4.45499      -9.78414       4.19280       6.80604      75.85610       2.48827       2.01383       0.62295       0.47126      27.18750       6.42812       6.02519       0.95754       3.32848  
    -0.47398      -5.12618       3.18219       5.72794      76.96440       2.51672       2.04952       0.69048       0.48744      27.37500       5.72156       9.80969       0.97509       2.98539  
     7.66033       1.03572       5.45856       3.99149      88.75950       3.82060       2.58948       0.47410       0.45270      23.12500      10.14540      13.96100       0.84443       2.96427  
    15.02220       6.46039       5.03396       3.69847      78.66190       4.03350       2.51598       0.42184       0.40934      17.40620      10.97870      18.69390       0.70804       2.86333  
    18.05370       9.53745       4.33918       3.13343      95.26950       4.74901       2.65267       0.41500       0.41554      18.50000      14.41050      16.95020       0.74420       2.79156  
    14.83450       7.62284       4.56459       3.48522      84.44370       4.33491       2.80116       0.41388       0.42289      18.84380      12.47410      11.29880       0.80417       2.78225  
     8.86749       3.75933       3.63387       3.73767      79.72200       3.68583       2.74445       0.50685       0.43114      20.87500      12.33950       5.64925       0.87438       3.07740  
     2.46445      -1.02561       4.08173       4.50395      89.43800       3.35412       2.18296       0.57627       0.46258      25.46880       9.33726       1.83788       0.91690       3.47106  
    -3.10018      -6.67777       4.52893       5.62541      78.06630       2.58594       1.61235       0.59649       0.47872      26.43750       5.25713       0.29591       0.94454       3.41252  
    -5.92954     -11.23980       5.43159       7.16855      73.43120       2.58756       1.97235       0.50256       0.47275      24.65620       6.23165       0.01394       0.93885       3.48199  
660n291e                       66.03640      29.06250     273.00000        32  
 tmp_max_ave   tmp_min_ave    tmp_max_sd    tmp_min_sd       pcp_ave        pcp_sd      pcp_skew       wet_dry       wet_wet      pcp_days       pcp_hhr       slr_ave       dew_ave       wnd_ave  
    -8.06926     -14.35720       6.60921       8.51925      66.60220       2.38227       1.67047       0.44531       0.45924      23.00000       4.98436       0.16099       0.92091       3.44172  
    -7.90454     -14.09770       6.08190       7.86417      59.14290       2.26307       1.79214       0.47368       0.45036      21.71880       5.01861       1.81934       0.92326       3.39986  
    -4.48053      -9.77379       4.18585       6.73911      75.93800       2.48473       2.09101       0.68067       0.46735      27.28120       7.00490       6.01236       0.95793       3.31444  
    -0.50272      -5.11751       3.18987       5.65544      77.56380       2.55322       2.11762       0.72500       0.48068      27.50000       5.68371       9.76087       0.97510       2.97176  
     7.58691       1.02117       5.46600       3.95411      90.34250       3.88489       2.68569       0.48347       0.45928      23.40620      10.63020      13.84250       0.84427       2.94981  
    14.96530       6.43946       5.05977       3.70708      79.44130       4.06638       2.67058       0.42317       0.41741      17.59380      12.67240      18.57150       0.70856       2.85058  
    17.98290       9.51189       4.35311       3.11904      95.12970       4.73139       2.64681       0.43000       0.41216      18.50000      14.03140      16.87550       0.74520       2.77631  
    14.75110       7.59607       4.57328       3.47446      84.95350       4.31229       2.74870       0.46133       0.41329      19.28120      11.77420      11.22050       0.80592       2.76088  
     8.79016       3.76971       3.64800       3.70955      80.56320       3.67951       2.69089       0.48929       0.43235      21.25000      12.21940       5.57090       0.87607       3.06179  
     2.41345      -0.99648       4.07196       4.45605      89.54850       3.33647       2.16422       0.56497       0.46503      25.46880       9.19848       1.83819       0.91625       3.45983  
    -3.14641      -6.66937       4.51661       5.55354      78.07070       2.58579       1.58013       0.58621       0.47867      26.37500       4.93690       0.29738       0.94465       3.39549  
    -5.97774     -11.14860       5.43630       7.03427      72.84170       2.56319       1.98910       0.54167       0.46843      24.75000       5.99733       0.01410       0.93853       3.47592  
660n294e                       66.03640      29.37500     307.00000        32  
 tmp_max_ave   tmp_min_ave    tmp_max_sd    tmp_min_sd       pcp_ave        pcp_sd      pcp_skew       wet_dry       wet_wet      pcp_days       pcp_hhr       slr_ave       dew_ave       wnd_ave  
    -8.08394     -14.33470       6.60531       8.48535      65.89920       2.36441       1.73406       0.45059       0.45467      23.09380       5.20726       0.16054       0.92071       3.42481  
    -7.92244     -14.03450       6.10405       7.80721      58.37000       2.24396       1.84136       0.46890       0.46043      21.71880       5.01740       1.81958       0.92311       3.38044  
    -4.47964      -9.76691       4.17184       6.70322      75.75240       2.48272       2.18761       0.69231       0.47314      27.34380       7.54443       6.00322       0.95804       3.29642  
    -0.50571      -5.12144       3.19446       5.64757      77.86000       2.60427       2.21244       0.74359       0.48186      27.56250       6.27912       9.72610       0.97490       2.95494  
     7.55739       1.02546       5.48380       3.91101      91.48620       3.95792       2.79185       0.51681       0.44754      23.53120      11.40830      13.75620       0.84341       2.93426  
    14.95730       6.43263       5.09783       3.72466      79.87110       4.12799       2.87573       0.44898       0.40669      17.75000      14.12400      18.46170       0.70826       2.83870  
    17.96330       9.49519       4.37444       3.11252      94.51380       4.74618       2.64315       0.41337       0.42177      18.37500      13.52850      16.81820       0.74544       2.76166  
    14.71430       7.58092       4.58711       3.47568      84.89090       4.30822       2.73660       0.45867       0.41329      19.28120      11.22620      11.16280       0.80678       2.74000  
     8.74945       3.79264       3.66644       3.68417      81.07530       3.71241       2.67001       0.51799       0.43548      21.31250      12.00070       5.50518       0.87702       3.04382  
     2.39053      -0.94813       4.06451       4.40661      89.24980       3.33561       2.15013       0.53804       0.47153      25.25000       8.82447       1.84590       0.91510       3.44509  
    -3.16341      -6.64081       4.50043       5.47916      77.70310       2.59686       1.57699       0.59350       0.47312      26.15620       4.96093       0.29978       0.94460       3.37636  
    -5.99014     -11.05290       5.42478       6.93084      71.96840       2.54425       2.01003       0.54404       0.46144      24.71880       5.72697       0.01428       0.93785       3.46844  
660n297e                       66.03640      29.68750     275.00000        32  
 tmp_max_ave   tmp_min_ave    tmp_max_sd    tmp_min_sd       pcp_ave        pcp_sd      pcp_skew       wet_dry       wet_wet      pcp_days       pcp_hhr       slr_ave       dew_ave       wnd_ave  
    -8.05588     -14.25610       6.60819       8.43075      64.52390       2.33285       1.81661       0.46774       0.45430      23.25000       5.39652       0.15954       0.92084       3.40173  
    -7.88033     -13.93900       6.10345       7.79491      57.00830       2.21000       1.89307       0.47393       0.46465      21.65620       4.90806       1.81255       0.92319       3.35467  
    -4.42641      -9.72177       4.14569       6.66322      74.48910       2.45729       2.28581       0.70940       0.46400      27.34380       7.87248       5.97915       0.95826       3.27218  
    -0.46365      -5.10301       3.19817       5.66965      77.01780       2.62261       2.29244       0.73750       0.48296      27.50000       6.49541       9.70045       0.97456       2.93253  
     7.60266       1.07376       5.49405       3.88314      90.96090       3.97303       2.87638       0.50612       0.44236      23.31250      12.05050      13.72110       0.84155       2.91212  
    15.01460       6.47727       5.13253       3.74752      78.74830       4.13605       2.98248       0.44724       0.41103      17.56250      14.38230      18.37080       0.70657       2.82038  
    18.00320       9.53324       4.38915       3.10911      92.44140       4.68956       2.61703       0.44717       0.40342      18.28120      13.00280      16.76780       0.74398       2.74134  
    14.74340       7.62878       4.59522       3.47444      83.53680       4.23792       2.75473       0.44536       0.42812      19.56250      11.97180      11.11860       0.80559       2.71677  
     8.78440       3.86504       3.67879       3.66667      80.55030       3.73102       2.71436       0.52727       0.43650      21.40620      11.51040       5.45788       0.87609       3.02160  
     2.43275      -0.85167       4.06118       4.36698      87.70120       3.30584       2.14681       0.56614       0.45704      25.09380       8.35914       1.85851       0.91285       3.42512  
    -3.12260      -6.55453       4.47956       5.40281      76.42960       2.59104       1.60238       0.57252       0.47768      25.90620       4.79089       0.30168       0.94409       3.35419  
    -5.94610     -10.93500       5.41014       6.86792      70.35280       2.51006       2.04547       0.55102       0.46701      24.62500       5.40973       0.01443       0.93726       3.45447  
660n300e                       66.03640      30.00000     261.00000        32  
 tmp_max_ave   tmp_min_ave    tmp_max_sd    tmp_min_sd       pcp_ave        pcp_sd      pcp_skew       wet_dry       wet_wet      pcp_days       pcp_hhr       slr_ave       dew_ave       wnd_ave  
    -7.97310     -14.12040       6.61837       8.39267      62.38920       2.29413       1.88038       0.46429       0.45541      23.12500       5.36468       0.15797       0.92149       3.37094  
    -7.76714     -13.79780       6.10277       7.84946      54.89050       2.15075       1.90973       0.48198       0.45748      21.31250       4.63228       1.79825       0.92373       3.32170  
    -4.30718      -9.55896       4.10245       6.63106      72.09480       2.41190       2.39020       0.65600       0.46713      27.09380       7.95899       5.94015       0.95864       3.24080  
    -0.35816      -4.98197       3.19643       5.67447      75.07340       2.61123       2.37525       0.73494       0.48347      27.40620       6.17367       9.68381       0.97412       2.90434  
     7.74137       1.25117       5.49117       3.89805      89.11310       3.94259       2.99543       0.47521       0.45260      23.40620      12.94210      13.73460       0.83884       2.88301  
    15.15700       6.73882       5.14630       3.80271      76.19630       4.07897       2.96517       0.43532       0.41756      17.43750      13.42700      18.29780       0.70349       2.79608  
    18.12350       9.76295       4.37973       3.12751      88.94780       4.59531       2.62731       0.44039       0.41824      18.15620      12.66880      16.72740       0.74076       2.71614  
    14.86550       7.85372       4.58190       3.47878      80.47760       4.11241       2.76840       0.44855       0.40946      19.15620      11.89370      11.08890       0.80227       2.69090  
     8.90982       4.03775       3.68097       3.65696      78.75560       3.75028       2.86414       0.53147       0.44065      21.06250      11.32960       5.42900       0.87321       2.99481  
     2.55223      -0.66594       4.05752       4.32303      84.76270       3.24720       2.16273       0.55941       0.46709      24.68750       8.43063       1.87602       0.90951       3.39841  
    -3.01303      -6.39793       4.45453       5.32450      74.26450       2.57304       1.68300       0.59712       0.47625      25.65620       5.24151       0.30309       0.94315       3.32816  
    -5.84853     -10.74950       5.38090       6.76449      67.93420       2.47534       2.12645       0.53431       0.45385      24.37500       5.55033       0.01454       0.93695       3.43156  
663n281e                       66.34860      28.12500     232.00000        32  
 tmp_max_ave   tmp_min_ave    tmp_max_sd    tmp_min_sd       pcp_ave        pcp_sd      pcp_skew       wet_dry       wet_wet      pcp_days       pcp_hhr       slr_ave       dew_ave       wnd_ave  
    -7.89773     -14.45520       6.61903       8.65318      64.50180       2.36797       1.61253       0.47636       0.45188      22.40620       4.91106       0.14143       0.92131       3.37949  
    -7.72733     -14.16940       6.03257       8.09286      57.07630       2.22945       1.73970       0.50435       0.44362      21.06250       5.10753       1.75955       0.92379       3.34383  
    -4.36647      -9.83454       4.17782       6.83868      72.12750       2.43865       1.99537       0.61429       0.47535      26.62500       5.54312       5.99644       0.95740       3.25991  
    -0.44732      -5.31207       3.08720       6.09670      72.48430       2.40809       2.12330       0.64444       0.48276      27.18750       5.64886       9.88684       0.97414       2.92836  
     7.73843       1.17258       5.46700       3.96519      81.49940       3.55674       2.61837       0.44151       0.45868      22.68750      11.30100      14.26800       0.83933       2.91594  
    15.25370       6.75317       5.04644       3.72294      73.82830       3.84397       2.35392       0.39423       0.41544      17.00000       9.34686      19.01290       0.69228       2.83741  
    18.24480       9.80177       4.31338       3.10025      89.98180       4.62174       2.80159       0.42195       0.40378      18.18750      14.55470      17.15440       0.73165       2.75030  
    15.06310       7.87764       4.55374       3.48557      79.46180       4.31406       3.32906       0.41604       0.41147      18.53120      14.32760      11.55710       0.79149       2.74700  
     9.08248       3.89162       3.58025       3.74123      76.56910       3.73304       2.90535       0.49231       0.42677      19.84380      11.52120       5.76592       0.86367       3.01051  
     2.57697      -0.91122       4.08339       4.49996      84.34950       3.26919       2.29943       0.60309       0.44988      24.93750       8.32068       1.86691       0.91128       3.39859  
    -2.96678      -6.52044       4.50971       5.50756      73.30770       2.49017       1.88383       0.54762       0.48321      26.06250       6.64141       0.27699       0.94385       3.33364  
    -5.79981     -11.28460       5.45109       7.40049      70.94380       2.55338       2.05286       0.52752       0.45953      23.93750       6.68226       0.00813       0.93932       3.39073  
663n284e                       66.34860      28.43750     258.00000        32  
 tmp_max_ave   tmp_min_ave    tmp_max_sd    tmp_min_sd       pcp_ave        pcp_sd      pcp_skew       wet_dry       wet_wet      pcp_days       pcp_hhr       slr_ave       dew_ave       wnd_ave  
    -7.99912     -14.59150       6.62625       8.71978      65.03140       2.35959       1.61966       0.49618       0.44521      22.81250       4.90385       0.14083       0.92036       3.39533  
    -7.83352     -14.26050       6.04023       8.07812      57.37640       2.22225       1.75699       0.50455       0.44883      21.37500       5.25954       1.75588       0.92302       3.35822  
    -4.45509      -9.94941       4.18031       6.85056      72.84050       2.44202       1.97348       0.65000       0.47066      26.62500       5.52990       5.99254       0.95701       3.27547  
    -0.54968      -5.42633       3.09360       6.11056      73.74470       2.42887       2.11046       0.64286       0.47945      27.37500       5.68191       9.87040       0.97445       2.94504  
     7.52957       0.99902       5.47993       4.00386      84.62060       3.65086       2.57736       0.47200       0.45884      23.15620      11.53170      14.08190       0.84518       2.92491  
    15.08250       6.57002       5.07576       3.75558      75.25220       3.87410       2.32221       0.39952       0.41316      17.09380       9.30182      18.85540       0.69806       2.84323  
    18.06900       9.61171       4.33330       3.13756      92.06970       4.68566       2.73190       0.44162       0.41137      18.68750      14.78730      17.03720       0.73697       2.75827  
    14.86980       7.70141       4.56061       3.50796      81.04310       4.36132       3.32681       0.41795       0.41694      18.81250      14.61180      11.41960       0.79702       2.74705  
     8.90720       3.76199       3.59063       3.76551      77.89620       3.73310       2.85670       0.49346       0.43578      20.43750      11.89850       5.67390       0.86852       3.01976  
     2.44675      -1.03770       4.08140       4.51330      85.15410       3.25019       2.21482       0.58511       0.45149      25.12500       8.03770       1.84274       0.91372       3.41190  
    -3.08526      -6.68356       4.51075       5.58927      74.26900       2.49464       1.81715       0.57143       0.47602      26.06250       6.32178       0.27618       0.94520       3.33921  
    -5.91866     -11.45990       5.48051       7.48424      71.32720       2.55126       2.07727       0.51643       0.45785      24.09380       6.78200       0.00824       0.93890       3.40740  
663n288e                       66.34860      28.75000     246.00000        32  
 tmp_max_ave   tmp_min_ave    tmp_max_sd    tmp_min_sd       pcp_ave        pcp_sd      pcp_skew       wet_dry       wet_wet      pcp_days       pcp_hhr       slr_ave       dew_ave       wnd_ave  
    -8.07645     -14.63620       6.62255       8.69917      64.90710       2.35279       1.63745       0.48120       0.44077      22.68750       4.79991       0.14032       0.92016       3.39392  
    -7.91661     -14.29430       6.06123       8.01376      57.18540       2.21439       1.76555       0.50673       0.45375      21.28120       5.26194       1.75536       0.92289       3.35372  
    -4.51427      -9.99107       4.17245       6.79045      73.39750       2.43606       1.99130       0.63566       0.46813      26.96880       5.49025       5.98701       0.95694       3.27476  
    -0.62962      -5.49947       3.08461       6.09229      74.59980       2.45279       2.10467       0.66667       0.49087      27.37500       5.65246       9.88505       0.97467       2.94445  
     7.36182       0.88929       5.49274       4.00586      86.95490       3.73159       2.57626       0.45968       0.45357      23.21880      11.47560      13.95290       0.84900       2.92047  
    14.95260       6.45475       5.10316       3.77242      76.35620       3.89031       2.30920       0.40198       0.42011      17.40620       9.05067      18.69350       0.70147       2.83897  
    17.93870       9.49673       4.33991       3.13799      93.00950       4.69457       2.68125       0.42748       0.41569      18.71880      14.71030      16.93840       0.74028       2.75551  
    14.72990       7.58272       4.56177       3.50378      82.12770       4.37944       3.21958       0.42147       0.42131      19.06250      14.02720      11.30320       0.80072       2.73696  
     8.77869       3.70356       3.59762       3.75168      78.77610       3.70218       2.77410       0.48649       0.43373      20.75000      12.08120       5.59693       0.87148       3.01854  
     2.35312      -1.07995       4.07300       4.48160      85.61370       3.23282       2.17547       0.56667       0.46921      25.37500       8.30657       1.83090       0.91421       3.41522  
    -3.17115      -6.75531       4.50653       5.58807      74.81570       2.49186       1.76306       0.54918       0.47733      26.18750       5.91863       0.27629       0.94581       3.33383  
    -6.00350     -11.48620       5.48760       7.40357      71.18540       2.53247       2.06478       0.53809       0.46124      24.18750       6.77239       0.00837       0.93882       3.41165  
663n291e                       66.34860      29.06250     251.00000        32  
 tmp_max_ave   tmp_min_ave    tmp_max_sd    tmp_min_sd       pcp_ave        pcp_sd      pcp_skew       wet_dry       wet_wet      pcp_days       pcp_hhr       slr_ave       dew_ave       wnd_ave  
    -8.13112     -14.63200       6.62356       8.66371      64.59470       2.34398       1.68037       0.47924       0.44842      22.71880       4.92548       0.13990       0.91999       3.38362  
    -7.97098     -14.28640       6.08692       7.93605      56.84800       2.20320       1.78257       0.49550       0.45601      21.31250       5.15199       1.75719       0.92270       3.33875  
    -4.54775      -9.98102       4.15987       6.70394      73.55450       2.43337       2.03399       0.70079       0.47052      27.03120       6.07484       5.98030       0.95701       3.26449  
    -0.69279      -5.54887       3.06614       6.08729      75.29950       2.48365       2.11992       0.69512       0.47836      27.43750       5.57616       9.92303       0.97467       2.93327  
     7.22836       0.81092       5.50540       4.00131      88.94080       3.80269       2.62480       0.47083       0.46205      23.46880      11.19770      13.86660       0.85135       2.90822  
    14.86680       6.38996       5.13235       3.78229      77.05250       3.92361       2.33205       0.39552       0.42115      17.43750       8.81035      18.52820       0.70320       2.82984  
    17.85110       9.43294       4.35216       3.11821      93.22400       4.68208       2.65089       0.42239       0.41903      18.71880      14.40030      16.85340       0.74217       2.74782  
    14.63500       7.50783       4.56543       3.49356      83.09410       4.39034       3.06130       0.47027       0.41158      19.43750      12.79980      11.20250       0.80312       2.72183  
     8.68871       3.69610       3.60626       3.71755      79.37960       3.66826       2.67768       0.50000       0.44048      21.00000      12.12320       5.53127       0.87311       3.01142  
     2.28912      -1.05712       4.06100       4.41104      85.73310       3.22817       2.18184       0.61452       0.45756      25.40620       8.66555       1.82831       0.91334       3.41279  
    -3.22833      -6.75961       4.49813       5.52200      74.91810       2.49307       1.71100       0.56349       0.48081      26.06250       5.43497       0.27712       0.94591       3.32293  
    -6.05300     -11.40190       5.47020       7.20690      70.72590       2.50240       2.03246       0.55122       0.45828      24.34380       6.68947       0.00850       0.93878       3.41049  
663n294e                       66.34860      29.37500     284.00000        32  
 tmp_max_ave   tmp_min_ave    tmp_max_sd    tmp_min_sd       pcp_ave        pcp_sd      pcp_skew       wet_dry       wet_wet      pcp_days       pcp_hhr       slr_ave       dew_ave       wnd_ave  
    -8.14752     -14.62560       6.62699       8.65856      63.70110       2.32853       1.74442       0.49813       0.44966      22.65620       5.19705       0.13920       0.91920       3.36530  
    -7.98051     -14.29400       6.10964       7.96381      56.04720       2.18486       1.81721       0.47273       0.45468      21.37500       4.95612       1.75458       0.92185       3.31600  