wetland.wet: written by SWAT+ editor v3.0.8 on 2025-07-29 21:28 for SWAT+ rev.61.0.1
      id  name                          init               hyd               rel               sed               nut  
       1  wet006                    initwet1         hydwet006           wetland           sedwet1           nutwet1  
       2  wet012                    initwet1         hydwet012           wetland           sedwet1           nutwet1  
       3  wet015                    initwet1         hydwet015           wetland           sedwet1           nutwet1  
       4  wet022                    initwet1         hydwet022           wetland           sedwet1           nutwet1  
       5  wet023                    initwet1         hydwet023           wetland           sedwet1           nutwet1  
       6  wet025                    initwet1         hydwet025           wetland           sedwet1           nutwet1  
       7  wet026                    initwet1         hydwet026           wetland           sedwet1           nutwet1  
       8  wet039                    initwet1         hydwet039           wetland           sedwet1           nutwet1  
       9  wet042                    initwet1         hydwet042           wetland           sedwet1           nutwet1  
      10  wet043                    initwet1         hydwet043           wetland           sedwet1           nutwet1  
      11  wet044                    initwet1         hydwet044           wetland           sedwet1           nutwet1  
      12  wet045                    initwet1         hydwet045           wetland           sedwet1           nutwet1  
      13  wet047                    initwet1         hydwet047           wetland           sedwet1           nutwet1  
      14  wet061                    initwet1         hydwet061           wetland           sedwet1           nutwet1  
      15  wet065                    initwet1         hydwet065           wetland           sedwet1           nutwet1  
      16  wet066                    initwet1         hydwet066           wetland           sedwet1           nutwet1  
      17  wet070                    initwet1         hydwet070           wetland           sedwet1           nutwet1  
      18  wet078                    initwet1         hydwet078           wetland           sedwet1           nutwet1  
      19  wet079                    initwet1         hydwet079           wetland           sedwet1           nutwet1  
      20  wet080                    initwet1         hydwet080           wetland           sedwet1           nutwet1  
      21  wet081                    initwet1         hydwet081           wetland           sedwet1           nutwet1  
      22  wet083                    initwet1         hydwet083           wetland           sedwet1           nutwet1  
      23  wet084                    initwet1         hydwet084           wetland           sedwet1           nutwet1  
      24  wet086                    initwet1         hydwet086           wetland           sedwet1           nutwet1  
      25  wet087                    initwet1         hydwet087           wetland           sedwet1           nutwet1  
      26  wet088                    initwet1         hydwet088           wetland           sedwet1           nutwet1  
      27  wet090                    initwet1         hydwet090           wetland           sedwet1           nutwet1  
      28  wet094                    initwet1         hydwet094           wetland           sedwet1           nutwet1  
      29  wet097                    initwet1         hydwet097           wetland           sedwet1           nutwet1  
      30  wet107                    initwet1         hydwet107           wetland           sedwet1           nutwet1  
      31  wet114                    initwet1         hydwet114           wetland           sedwet1           nutwet1  
      32  wet118                    initwet1         hydwet118           wetland           sedwet1           nutwet1  
      33  wet130                    initwet1         hydwet130           wetland           sedwet1           nutwet1  
      34  wet132                    initwet1         hydwet132           wetland           sedwet1           nutwet1  
      35  wet133                    initwet1         hydwet133           wetland           sedwet1           nutwet1  
      36  wet134                    initwet1         hydwet134           wetland           sedwet1           nutwet1  
      37  wet135                    initwet1         hydwet135           wetland           sedwet1           nutwet1  
      38  wet139                    initwet1         hydwet139           wetland           sedwet1           nutwet1  
      39  wet143                    initwet1         hydwet143           wetland           sedwet1           nutwet1  
      40  wet144                    initwet1         hydwet144           wetland           sedwet1           nutwet1  
      41  wet145                    initwet1         hydwet145           wetland           sedwet1           nutwet1  
      42  wet149                    initwet1         hydwet149           wetland           sedwet1           nutwet1  
      43  wet157                    initwet1         hydwet157           wetland           sedwet1           nutwet1  
      44  wet158                    initwet1         hydwet158           wetland           sedwet1           nutwet1  
      45  wet163                    initwet1         hydwet163           wetland           sedwet1           nutwet1  
      46  wet171                    initwet1         hydwet171           wetland           sedwet1           nutwet1  
      47  wet180                    initwet1         hydwet180           wetland           sedwet1           nutwet1  
      48  wet181                    initwet1         hydwet181           wetland           sedwet1           nutwet1  
      49  wet190                    initwet1         hydwet190           wetland           sedwet1           nutwet1  
      50  wet192                    initwet1         hydwet192           wetland           sedwet1           nutwet1  
      51  wet196                    initwet1         hydwet196           wetland           sedwet1           nutwet1  
      52  wet208                    initwet1         hydwet208           wetland           sedwet1           nutwet1  
      53  wet210                    initwet1         hydwet210           wetland           sedwet1           nutwet1  
      54  wet232                    initwet1         hydwet232           wetland           sedwet1           nutwet1  
      55  wet236                    initwet1         hydwet236           wetland           sedwet1           nutwet1  
      56  wet237                    initwet1         hydwet237           wetland           sedwet1           nutwet1  
      57  wet240                    initwet1         hydwet240           wetland           sedwet1           nutwet1  
      58  wet241                    initwet1         hydwet241           wetland           sedwet1           nutwet1  
      59  wet244                    initwet1         hydwet244           wetland           sedwet1           nutwet1  
      60  wet261                    initwet1         hydwet261           wetland           sedwet1           nutwet1  
      61  wet262                    initwet1         hydwet262           wetland           sedwet1           nutwet1  
      62  wet264                    initwet1         hydwet264           wetland           sedwet1           nutwet1  
      63  wet282                    initwet1         hydwet282           wetland           sedwet1           nutwet1  
      64  wet295                    initwet1         hydwet295           wetland           sedwet1           nutwet1  
      65  wet297                    initwet1         hydwet297           wetland           sedwet1           nutwet1  
      66  wet299                    initwet1         hydwet299           wetland           sedwet1           nutwet1  
      67  wet301                    initwet1         hydwet301           wetland           sedwet1           nutwet1  
      68  wet304                    initwet1         hydwet304           wetland           sedwet1           nutwet1  
      69  wet335                    initwet1         hydwet335           wetland           sedwet1           nutwet1  
      70  wet350                    initwet1         hydwet350           wetland           sedwet1           nutwet1  
      71  wet366                    initwet1         hydwet366           wetland           sedwet1           nutwet1  
      72  wet369                    initwet1         hydwet369           wetland           sedwet1           nutwet1  
      73  wet379                    initwet1         hydwet379           wetland           sedwet1           nutwet1  
      74  wet380                    initwet1         hydwet380           wetland           sedwet1           nutwet1  
      75  wet401                    initwet1         hydwet401           wetland           sedwet1           nutwet1  
      76  wet402                    initwet1         hydwet402           wetland           sedwet1           nutwet1  
      77  wet405                    initwet1         hydwet405           wetland           sedwet1           nutwet1  
      78  wet409                    initwet1         hydwet409           wetland           sedwet1           nutwet1  
      79  wet463                    initwet1         hydwet463           wetland           sedwet1           nutwet1  
      80  wet474                    initwet1         hydwet474           wetland           sedwet1           nutwet1  
      81  wet495                    initwet1         hydwet495           wetland           sedwet1           nutwet1  
      82  wet496                    initwet1         hydwet496           wetland           sedwet1           nutwet1  
      83  wet497                    initwet1         hydwet497           wetland           sedwet1           nutwet1  
      84  wet498                    initwet1         hydwet498           wetland           sedwet1           nutwet1  
      85  wet499                    initwet1         hydwet499           wetland           sedwet1           nutwet1  
      86  wet505                    initwet1         hydwet505           wetland           sedwet1           nutwet1  
      87  wet510                    initwet1         hydwet510           wetland           sedwet1           nutwet1  
      88  wet518                    initwet1         hydwet518           wetland           sedwet1           nutwet1  
      89  wet533                    initwet1         hydwet533           wetland           sedwet1           nutwet1  
      90  wet556                    initwet1         hydwet556           wetland           sedwet1           nutwet1  
