wetland.wet: written by SWAT+ editor v3.0.8 on 2025-10-29 11:31 for SWAT+ rev.61.0.1
      id  name                          init               hyd               rel               sed               nut  
       1  wet006                    initwet1         hydwet006           wetland           sedwet1           nutwet1  
       2  wet012                    initwet1         hydwet012           wetland           sedwet1           nutwet1  
       3  wet015                    initwet1         hydwet015           wetland           sedwet1           nutwet1  
       4  wet022                    initwet1         hydwet022           wetland           sedwet1           nutwet1  
       5  wet023                    initwet1         hydwet023           wetland           sedwet1           nutwet1  
       6  wet025                    initwet1         hydwet025           wetland           sedwet1           nutwet1  
       7  wet026                    initwet1         hydwet026           wetland           sedwet1           nutwet1  
       8  wet028                    initwet1         hydwet028           wetland           sedwet1           nutwet1  
       9  wet031                    initwet1         hydwet031           wetland           sedwet1           nutwet1  
      10  wet035                    initwet1         hydwet035           wetland           sedwet1           nutwet1  
      11  wet040                    initwet1         hydwet040           wetland           sedwet1           nutwet1  
      12  wet059                    initwet1         hydwet059           wetland           sedwet1           nutwet1  
      13  wet060                    initwet1         hydwet060           wetland           sedwet1           nutwet1  
      14  wet063                    initwet1         hydwet063           wetland           sedwet1           nutwet1  
      15  wet091                    initwet1         hydwet091           wetland           sedwet1           nutwet1  
      16  wet094                    initwet1         hydwet094           wetland           sedwet1           nutwet1  
      17  wet098                    initwet1         hydwet098           wetland           sedwet1           nutwet1  
      18  wet101                    initwet1         hydwet101           wetland           sedwet1           nutwet1  
      19  wet128                    initwet1         hydwet128           wetland           sedwet1           nutwet1  
      20  wet137                    initwet1         hydwet137           wetland           sedwet1           nutwet1  
      21  wet139                    initwet1         hydwet139           wetland           sedwet1           nutwet1  
      22  wet167                    initwet1         hydwet167           wetland           sedwet1           nutwet1  
      23  wet191                    initwet1         hydwet191           wetland           sedwet1           nutwet1  
      24  wet209                    initwet1         hydwet209           wetland           sedwet1           nutwet1  
      25  wet220                    initwet1         hydwet220           wetland           sedwet1           nutwet1  
      26  wet230                    initwet1         hydwet230           wetland           sedwet1           nutwet1  
      27  wet232                    initwet1         hydwet232           wetland           sedwet1           nutwet1  
      28  wet236                    initwet1         hydwet236           wetland           sedwet1           nutwet1  
      29  wet237                    initwet1         hydwet237           wetland           sedwet1           nutwet1  
      30  wet258                    initwet1         hydwet258           wetland           sedwet1           nutwet1  
      31  wet270                    initwet1         hydwet270           wetland           sedwet1           nutwet1  
      32  wet280                    initwet1         hydwet280           wetland           sedwet1           nutwet1  
      33  wet310                    initwet1         hydwet310           wetland           sedwet1           nutwet1  
      34  wet314                    initwet1         hydwet314           wetland           sedwet1           nutwet1  
      35  wet325                    initwet1         hydwet325           wetland           sedwet1           nutwet1  
      36  wet342                    initwet1         hydwet342           wetland           sedwet1           nutwet1  
      37  wet358                    initwet1         hydwet358           wetland           sedwet1           nutwet1  
      38  wet384                    initwet1         hydwet384           wetland           sedwet1           nutwet1  
      39  wet385                    initwet1         hydwet385           wetland           sedwet1           nutwet1  
      40  wet387                    initwet1         hydwet387           wetland           sedwet1           nutwet1  
      41  wet389                    initwet1         hydwet389           wetland           sedwet1           nutwet1  
      42  wet391                    initwet1         hydwet391           wetland           sedwet1           nutwet1  
      43  wet396                    initwet1         hydwet396           wetland           sedwet1           nutwet1  
      44  wet439                    initwet1         hydwet439           wetland           sedwet1           nutwet1  
      45  wet448                    initwet1         hydwet448           wetland           sedwet1           nutwet1  
      46  wet456                    initwet1         hydwet456           wetland           sedwet1           nutwet1  
      47  wet476                    initwet1         hydwet476           wetland           sedwet1           nutwet1  
      48  wet489                    initwet1         hydwet489           wetland           sedwet1           nutwet1  
      49  wet491                    initwet1         hydwet491           wetland           sedwet1           nutwet1  
      50  wet498                    initwet1         hydwet498           wetland           sedwet1           nutwet1  
      51  wet503                    initwet1         hydwet503           wetland           sedwet1           nutwet1  
      52  wet504                    initwet1         hydwet504           wetland           sedwet1           nutwet1  
      53  wet506                    initwet1         hydwet506           wetland           sedwet1           nutwet1  
      54  wet515                    initwet1         hydwet515           wetland           sedwet1           nutwet1  
      55  wet525                    initwet1         hydwet525           wetland           sedwet1           nutwet1  
      56  wet552                    initwet1         hydwet552           wetland           sedwet1           nutwet1  
      57  wet555                    initwet1         hydwet555           wetland           sedwet1           nutwet1  
      58  wet561                    initwet1         hydwet561           wetland           sedwet1           nutwet1  
      59  wet569                    initwet1         hydwet569           wetland           sedwet1           nutwet1  
      60  wet578                    initwet1         hydwet578           wetland           sedwet1           nutwet1  
      61  wet620                    initwet1         hydwet620           wetland           sedwet1           nutwet1  
      62  wet626                    initwet1         hydwet626           wetland           sedwet1           nutwet1  
      63  wet628                    initwet1         hydwet628           wetland           sedwet1           nutwet1  
      64  wet631                    initwet1         hydwet631           wetland           sedwet1           nutwet1  
      65  wet632                    initwet1         hydwet632           wetland           sedwet1           nutwet1  
      66  wet633                    initwet1         hydwet633           wetland           sedwet1           nutwet1  
      67  wet648                    initwet1         hydwet648           wetland           sedwet1           nutwet1  
      68  wet657                    initwet1         hydwet657           wetland           sedwet1           nutwet1  
      69  wet674                    initwet1         hydwet674           wetland           sedwet1           nutwet1  
      70  wet676                    initwet1         hydwet676           wetland           sedwet1           nutwet1  
      71  wet677                    initwet1         hydwet677           wetland           sedwet1           nutwet1  
      72  wet690                    initwet1         hydwet690           wetland           sedwet1           nutwet1  
      73  wet711                    initwet1         hydwet711           wetland           sedwet1           nutwet1  
      74  wet712                    initwet1         hydwet712           wetland           sedwet1           nutwet1  
      75  wet729                    initwet1         hydwet729           wetland           sedwet1           nutwet1  
      76  wet731                    initwet1         hydwet731           wetland           sedwet1           nutwet1  
      77  wet759                    initwet1         hydwet759           wetland           sedwet1           nutwet1  
      78  wet761                    initwet1         hydwet761           wetland           sedwet1           nutwet1  
